2OJG - prepared_ligand
                    3D
 Schrodinger Suite 2022-3.
 37 39  0  0  1  0            999 V2000
   -9.2691   13.3778   41.3504 C   0  0  0  0  0  0
  -10.7109   13.2297   41.1351 N   0  0  0  0  0  0
  -11.4701   14.3057   41.7699 C   0  0  0  0  0  0
  -11.2140   12.2040   40.3903 C   0  0  0  0  0  0
  -10.4837   11.4132   39.7912 O   0  0  0  0  0  0
  -12.6478   11.9957   40.3141 C   0  0  0  0  0  0
  -13.7055   12.3907   41.1334 C   0  0  0  0  0  0
  -14.9170   11.9163   40.6148 C   0  0  0  0  0  0
  -14.5904   11.1875   39.4849 C   0  0  0  0  0  0
  -13.2301   11.2236   39.3351 N   0  0  0  0  0  0
  -16.2266   12.1358   41.1789 C   0  0  0  0  0  0
  -17.2421   11.2253   41.0497 N   0  0  0  0  0  0
  -18.3739   11.5960   41.6427 N   0  0  0  0  0  0
  -18.0852   12.7470   42.1936 C   0  0  0  0  0  0
  -16.7733   13.1666   41.9419 C   0  0  0  0  0  0
  -16.1480   14.4353   42.3987 C   0  0  0  0  0  0
  -15.4031   15.2036   41.5036 C   0  0  0  0  0  0
  -14.8379   16.4075   41.9081 C   0  0  0  0  0  0
  -15.0081   16.8341   43.2221 C   0  0  0  0  0  0
  -15.7433   16.0679   44.1242 C   0  0  0  0  0  0
  -16.3193   14.8698   43.7142 C   0  0  0  0  0  0
   -8.6797   12.5881   40.8837 H   0  0  0  0  0  0
   -8.9205   14.3262   40.9418 H   0  0  0  0  0  0
   -9.0484   13.3734   42.4188 H   0  0  0  0  0  0
  -12.3763   14.5578   41.2202 H   0  0  0  0  0  0
  -11.7321   14.0197   42.7873 H   0  0  0  0  0  0
  -10.8831   15.2219   41.8209 H   0  0  0  0  0  0
  -13.6303   12.9656   42.0430 H   0  0  0  0  0  0
  -15.2008   10.6370   38.7838 H   0  0  0  0  0  0
  -12.7242   10.7616   38.5909 H   0  0  0  0  0  0
  -17.1641   10.3465   40.5552 H   0  0  0  0  0  0
  -18.8196   13.2973   42.7623 H   0  0  0  0  0  0
  -15.2608   14.8614   40.4953 H   0  0  0  0  0  0
  -14.2674   16.9998   41.2083 H   0  0  0  0  0  0
  -14.5590   17.7611   43.5469 H   0  0  0  0  0  0
  -15.8643   16.3976   45.1426 H   0  0  0  0  0  0
  -16.8874   14.2796   44.4192 H   0  0  0  0  0  0
  1  2  1  0  0  0
  1 22  1  0  0  0
  1 23  1  0  0  0
  1 24  1  0  0  0
  2  3  1  0  0  0
  2  4  1  0  0  0
  3 25  1  0  0  0
  3 26  1  0  0  0
  3 27  1  0  0  0
  4  5  2  0  0  0
  4  6  1  0  0  0
  6  7  2  0  0  0
  6 10  1  0  0  0
  7  8  1  0  0  0
  7 28  1  0  0  0
  8  9  2  0  0  0
  8 11  1  0  0  0
  9 10  1  0  0  0
  9 29  1  0  0  0
 10 30  1  0  0  0
 11 12  1  0  0  0
 11 15  2  0  0  0
 12 13  1  0  0  0
 12 31  1  0  0  0
 13 14  2  0  0  0
 14 15  1  0  0  0
 14 32  1  0  0  0
 15 16  1  0  0  0
 16 17  2  0  0  0
 16 21  1  0  0  0
 17 18  1  0  0  0
 17 33  1  0  0  0
 18 19  2  0  0  0
 18 34  1  0  0  0
 19 20  1  0  0  0
 19 35  1  0  0  0
 20 21  2  0  0  0
 20 36  1  0  0  0
 21 37  1  0  0  0
M  END
> <s_m_entry_id>
8

> <s_m_entry_name>
2ojg.1_ligand

> <s_pdb_PDB_format_version>
3.15

> <s_m_Source_Path>
/Users/pwalters

> <s_m_Source_File>
2ojg.pdb

> <i_m_Source_File_Index>
1

> <b_ppw_prepared>
1

> <s_ppw_prepared_with_version>
2022-3

> <b_ppw_created_disulfur>
1

> <r_ppw_preprocess_pH>
7.4

> <r_i_Potential_Energy-S-OPLS>
-1861.328661975

> <r_i_RMS_Derivative-S-OPLS>
0.101032921565465

> <r_i_Max_Derivative-S-OPLS>
1.89479200363759

> <r_i_Stretch_Energy-S-OPLS>
148.113737056841

> <r_i_Bend_Energy-S-OPLS>
770.097429240077

> <r_i_LJ-14_Energy-S-OPLS>
1685.06307122314

> <r_i_El-14_Energy-S-OPLS>
540.176884952679

> <r_i_Van_der_Waals_Energy-S-OPLS>
-3477.61593054285

> <r_i_Electrostatic_Energy-S-OPLS>
-2374.6245370644

> <r_i_Dihedral_Energy-S-OPLS>
723.475157349275

> <r_i_target_temperature>
298

> <s_m_job_name>
proteinprep_18

> <s_pdb_PDB_TITLE>
CRYSTAL STRUCTURE OF ERK2 IN COMPLEX WITH N,N-DIMETHYL-4-(4- PHENYL-1H-PYRAZOL-3-YL)-1H-PYRROLE-2-CARBOXAMIDE

> <s_pdb_PDB_ID>
2OJG

> <r_pdb_PDB_CRYST1_a>
48.665

> <r_pdb_PDB_CRYST1_b>
70.776

> <r_pdb_PDB_CRYST1_c>
60.141

> <r_pdb_PDB_CRYST1_alpha>
90

> <r_pdb_PDB_CRYST1_beta>
109.03

> <r_pdb_PDB_CRYST1_gamma>
90

> <s_pdb_PDB_CRYST1_Space_Group>
P 1 21 1

> <i_pdb_PDB_CRYST1_z>
2

> <s_pdb_PDB_CLASSIFICATION>
TRANSFERASE

> <s_pdb_PDB_DEPOSITION_DATE>
12-JAN-07

> <r_pdb_PDB_R>
0.216

> <r_pdb_PDB_Rfree>
0.26

> <r_pdb_PDB_RESOLUTION>
2

> <s_pdb_PDB_EXPDTA>
X-RAY DIFFRACTION

> <r_pdb_PDB_EXPDTA_TEMPERATURE>
100

> <r_pdb_PDB_EXPDTA_PH>
7.2

> <s_pdb_PDB_REMARK_350_Biomolecule_1_Transform_1_Chains>
A

> <s_pdb_PDB_REMARK_350_Biomolecule_1_Transform_1_Matrix_1>
1.000000 0.000000 0.000000   0.000000;0.000000 1.000000 0.000000   0.000000;0.000000 0.000000 1.000000   0.000000

> <s_ppw_het_states>
eJztUkFuAyEQ+wrivImY2YVh+5UqP4h662mVv5eZ2WCI2nNVqTlExgwYe31Eim/hvf1Ysiwh3ZagsC7hQifegUvqI4UUKj6P+qnnISf2F0LP80SQEo25pGvbOx5L+Pi83/1f+cj9fYUhvgJugBmwAMJWqYB7hwJTQoBQE6gJ1ARqAjWBmkBNoFahVqFWeUhTjbpHgl13OhMZRDai9HhPQjDheVdMGKGOCel4MISMPB6eCO4TtjfeIfZ0DYwnomDCni7wotDTJATrRxjxerKEkD1fHok6PMy8CLyIPb3Ci0H7BISv4XdYIdN1o9SuPSJpBdtScpuIa7JVXjdb0XNP5urql/zv7B/r7EwMBfy5s4xg55r/cmfX7zpb0ktLb48vFQdE3A==

> <s_m_subgroup_title>
proteinprep_18-out1->2OJG - prepared_split_by_structure

> <s_m_subgroupid>
proteinprep_18-out1->2OJG - prepared_split_by_structure

> <b_m_subgroup_collapsed>
0

$$$$
