2QD9_ligand
                    3D
 Schrodinger Suite 2023-3.
 64 69  0  0  1  0            999 V2000
   -5.2490    0.7230   15.9950 C   0  0  0  0  0  0
   -1.0410   -1.6290   24.8070 C   0  0  0  0  0  0
   -1.5140   -2.1270   23.4630 C   0  0  0  0  0  0
   -3.3810    1.5660   17.2660 C   0  0  0  0  0  0
   -1.8490   -1.8110   25.9350 C   0  0  0  0  0  0
    0.2020   -0.9830   24.9470 C   0  0  0  0  0  0
   -0.1470   -0.6420   27.1790 C   0  0  0  0  0  0
   -1.4030   -1.3080   27.1700 C   0  0  0  0  0  0
   -1.9090   -1.2820   28.5200 C   0  0  0  0  0  0
   -5.3190    0.6850   18.4100 C   0  0  0  0  0  0
   -5.9240    0.4330   17.1810 C   0  0  0  0  0  0
   -3.1540   -1.9030   28.9720 C   0  0  0  0  0  0
   -5.8090    0.4090   14.8080 F   0  0  0  0  0  0
   -3.9860    1.3080   16.0370 C   0  0  0  0  0  0
   -5.9790    0.3830   19.5520 F   0  0  0  0  0  0
   -4.0330    1.2320   18.4580 C   0  0  0  0  0  0
   -3.3420    1.4410   19.7530 C   0  0  0  0  0  0
   -3.0450    2.6220   20.2280 N   0  0  0  0  0  0
   -2.9130    0.4300   20.5820 N   0  0  0  0  0  0
   -2.2760    1.0460   21.6290 C   0  0  0  0  0  0
   -2.4010    2.3960   21.3560 C   0  0  0  0  0  0
   -1.6000    0.2400   22.7190 C   0  0  0  0  0  0
   -1.6290   -1.2230   22.4520 N   0  0  0  0  0  0
   -1.8480   -1.6830   21.0590 C   0  0  0  0  0  0
   -3.1310   -1.0060   20.5340 C   0  0  0  0  0  0
   -1.7260   -3.3320   23.3260 O   0  0  0  0  0  0
    0.0940   -0.2280   28.4680 N   0  0  0  0  0  0
   -0.9570   -0.6020   29.2710 C   0  0  0  0  0  0
    0.6550   -0.4660   26.1270 N   0  0  0  0  0  0
    1.0130   -0.8600   23.8260 O   0  0  0  0  0  0
    2.2310   -0.1280   23.8880 C   0  0  0  0  0  0
   -3.8390   -2.6270   28.2460 O   0  0  0  0  0  0
   -3.7370   -1.5220   30.3930 C   0  0  0  0  0  0
   -3.9610   -0.3360   30.6430 O   0  0  0  0  0  0
   -4.0390   -2.5640   31.2130 N   0  0  0  0  0  0
   -3.7890   -3.9980   30.9970 C   0  0  0  0  0  0
   -5.1440   -4.6340   31.2990 C   0  0  2  0  0  0
   -6.0120   -4.4430   30.1930 O   0  0  0  0  0  0
   -5.6070   -3.7970   32.4890 C   0  0  0  0  0  0
   -5.0170   -2.3850   32.2970 C   0  0  0  0  0  0
   -2.3970    2.0060   17.2800 H   0  0  0  0  0  0
   -2.8030   -2.3120   25.8570 H   0  0  0  0  0  0
   -6.8970   -0.0280   17.1500 H   0  0  0  0  0  0
   -3.4650    1.5410   15.1210 H   0  0  0  0  0  0
   -2.0150    3.2030   21.9610 H   0  0  0  0  0  0
   -2.0190    0.4940   23.6940 H   0  0  0  0  0  0
   -0.5690    0.5810   22.8090 H   0  0  0  0  0  0
   -1.9470   -2.7670   20.9800 H   0  0  0  0  0  0
   -0.9890   -1.3740   20.4610 H   0  0  0  0  0  0
   -3.3620   -1.3240   19.5210 H   0  0  0  0  0  0
   -3.9640   -1.2360   21.1920 H   0  0  0  0  0  0
    0.9060    0.2620   28.8160 H   0  0  0  0  0  0
   -0.9280   -0.3650   30.3250 H   0  0  0  0  0  0
    2.6500   -0.0180   22.8900 H   0  0  0  0  0  0
    2.0930    0.8700   24.3050 H   0  0  0  0  0  0
    2.9660   -0.6740   24.4700 H   0  0  0  0  0  0
   -3.0910   -4.3480   31.7580 H   0  0  0  0  0  0
   -3.3840   -4.2980   30.0310 H   0  0  0  0  0  0
   -5.0700   -5.7040   31.4990 H   0  0  0  0  0  0
   -5.4930   -4.4920   29.3870 H   0  0  0  0  0  0
   -5.1870   -4.2340   33.3980 H   0  0  0  0  0  0
   -6.6900   -3.7960   32.6230 H   0  0  0  0  0  0
   -5.8360   -1.7160   32.0250 H   0  0  0  0  0  0
   -4.5430   -2.0920   33.2340 H   0  0  0  0  0  0
  1 11  1  0  0  0
  1 13  1  0  0  0
  1 14  2  0  0  0
  2  3  1  0  0  0
  2  5  1  0  0  0
  2  6  2  0  0  0
  3 23  1  0  0  0
  3 26  2  0  0  0
  4 14  1  0  0  0
  4 16  2  0  0  0
  4 41  1  0  0  0
  5  8  2  0  0  0
  5 42  1  0  0  0
  6 29  1  0  0  0
  6 30  1  0  0  0
  7  8  1  0  0  0
  7 27  1  0  0  0
  7 29  2  0  0  0
  8  9  1  0  0  0
  9 12  1  0  0  0
  9 28  2  0  0  0
 10 11  2  0  0  0
 10 15  1  0  0  0
 10 16  1  0  0  0
 11 43  1  0  0  0
 12 32  2  0  0  0
 12 33  1  0  0  0
 14 44  1  0  0  0
 16 17  1  0  0  0
 17 18  2  0  0  0
 17 19  1  0  0  0
 18 21  1  0  0  0
 19 20  1  0  0  0
 19 25  1  0  0  0
 20 21  2  0  0  0
 20 22  1  0  0  0
 21 45  1  0  0  0
 22 23  1  0  0  0
 22 46  1  0  0  0
 22 47  1  0  0  0
 23 24  1  0  0  0
 24 25  1  0  0  0
 24 48  1  0  0  0
 24 49  1  0  0  0
 25 50  1  0  0  0
 25 51  1  0  0  0
 27 28  1  0  0  0
 27 52  1  0  0  0
 28 53  1  0  0  0
 30 31  1  0  0  0
 31 54  1  0  0  0
 31 55  1  0  0  0
 31 56  1  0  0  0
 33 34  2  0  0  0
 33 35  1  0  0  0
 35 36  1  0  0  0
 35 40  1  0  0  0
 36 37  1  0  0  0
 36 57  1  0  0  0
 36 58  1  0  0  0
 37 38  1  0  0  0
 37 39  1  0  0  0
 37 59  1  0  0  0
 38 60  1  0  0  0
 39 40  1  0  0  0
 39 61  1  0  0  0
 39 62  1  0  0  0
 40 63  1  0  0  0
 40 64  1  0  0  0
M  END
> <i_m_Source_File_Index>
1

> <i_pdb_PDB_CRYST1_z>
4

> <b_m_subgroup_collapsed>
0

> <r_pdb_PDB_CRYST1_a>
65.65

> <r_pdb_PDB_CRYST1_alpha>
90

> <r_pdb_PDB_CRYST1_b>
74.36

> <r_pdb_PDB_CRYST1_beta>
90

> <r_pdb_PDB_CRYST1_c>
78.98

> <r_pdb_PDB_CRYST1_gamma>
90

> <r_pdb_PDB_EXPDTA_TEMPERATURE>
100

> <r_pdb_PDB_R>
0.251

> <r_pdb_PDB_RESOLUTION>
1.7

> <r_pdb_PDB_Rfree>
0.282

> <s_m_Source_File>
2qd9_prepared.pdb

> <s_m_Source_Path>
/Users/pwalters/Dropbox/Data/ATTIC/DOCKING_COMPARISON/mk14

> <s_m_entry_id>
2

> <s_m_entry_name>
2qd9_prepared.1_ligand

> <s_m_subgroup_title>
2QD9_split_by_structure

> <s_m_subgroupid>
2QD9_split_by_structure

> <s_pdb_PDB_CLASSIFICATION>
TRANSFERASE

> <s_pdb_PDB_CRYST1_Space_Group>
P 21 21 21

> <s_pdb_PDB_DEPOSITION_DATE>
20-JUN-07

> <s_pdb_PDB_EXPDTA>
X-RAY DIFFRACTION

> <s_pdb_PDB_ID>
2QD9

> <s_pdb_PDB_REMARK_350_Biomolecule_1_Transform_1_Chains>
A

> <s_pdb_PDB_REMARK_350_Biomolecule_1_Transform_1_Matrix_1>
1.000000 0.000000 0.000000   0.000000;0.000000 1.000000 0.000000   0.000000;0.000000 0.000000 1.000000   0.000000

> <s_pdb_PDB_TITLE>
P38 ALPHA MAP KINASE INHIBITOR BASED ON HETEROBICYCLIC SCAFFOLDS

> <s_pdb_PDB_format_version>
3.30

$$$$
