46C_901_2ZDT
  -OEChem-08202320343D

 51 54  0     0  0  0  0  0  0999 V2000
   50.9310    8.0740   29.1850 C   0  0  0  0  0  0  0  0  0  0  0  0
   49.2700   12.5050   30.4110 C   0  0  0  0  0  0  0  0  0  0  0  0
   49.3750   11.8700   31.7400 C   0  0  0  0  0  0  0  0  0  0  0  0
   48.3910   11.9240   29.3760 C   0  0  0  0  0  0  0  0  0  0  0  0
   48.5990   10.6600   32.0400 C   0  0  0  0  0  0  0  0  0  0  0  0
   47.6100   10.7100   29.6630 C   0  0  0  0  0  0  0  0  0  0  0  0
   47.7190    3.9370   32.1980 C   0  0  0  0  0  0  0  0  0  0  0  0
   49.2630    4.4360   30.2040 C   0  0  0  0  0  0  0  0  0  0  0  0
   48.8160    3.2610   32.8770 C   0  0  0  0  0  0  0  0  0  0  0  0
   50.3710    3.7490   30.8860 C   0  0  0  0  0  0  0  0  0  0  0  0
   43.3960    9.0110   33.8360 C   0  0  0  0  0  0  0  0  0  0  0  0
   43.7810    7.7660   33.1860 C   0  0  0  0  0  0  0  0  0  0  0  0
   45.4310   10.2140   32.8130 C   0  0  0  0  0  0  0  0  0  0  0  0
   49.8970    7.9610   30.2860 C   0  0  0  0  0  0  0  0  0  0  0  0
   46.8430    5.2350   30.2080 C   0  0  0  0  0  0  0  0  0  0  0  0
   47.9650    4.5110   30.8820 C   0  0  0  0  0  0  0  0  0  0  0  0
   47.7340   10.1060   30.9950 C   0  0  0  0  0  0  0  0  0  0  0  0
   50.1170    3.1750   32.2150 C   0  0  0  0  0  0  0  0  0  0  0  0
   44.2220   10.2100   33.6400 C   0  0  0  0  0  0  0  0  0  0  0  0
   44.9900    7.7840   32.3550 C   0  0  0  0  0  0  0  0  0  0  0  0
   45.7950    8.9730   32.1710 C   0  0  0  0  0  0  0  0  0  0  0  0
   46.9530    8.9150   31.2900 C   0  0  0  0  0  0  0  0  0  0  0  0
   47.2990    7.6610   30.6710 C   0  0  0  0  0  0  0  0  0  0  0  0
   45.3870    6.5400   31.6110 C   0  0  0  0  0  0  0  0  0  0  0  0
   48.5160    7.5860   29.7570 C   0  0  0  0  0  0  0  0  0  0  0  0
   51.2370    2.4550   32.9530 C   0  0  0  0  0  0  0  0  0  0  0  0
   46.4940    6.5070   30.8710 N   0  0  0  0  0  0  0  0  0  0  0  0
   50.9340    1.6910   33.9090 O   0  5  0  0  0  0  0  0  0  0  0  0
   44.6710    5.5460   31.6800 O   0  0  0  0  0  0  0  0  0  0  0  0
   48.3610    7.2010   28.5990 O   0  0  0  0  0  0  0  0  0  0  0  0
   52.4030    2.6410   32.6110 O   0  0  0  0  0  0  0  0  0  0  0  0
   43.7890   11.6300   34.3890 Cl  0  0  0  0  0  0  0  0  0  0  0  0
   51.9037    8.3453   29.6212 H   0  0  0  0  0  0  0  0  0  0  0  0
   51.0191    7.1090   28.6645 H   0  0  0  0  0  0  0  0  0  0  0  0
   50.6211    8.8498   28.4694 H   0  0  0  0  0  0  0  0  0  0  0  0
   49.8381   13.3977   30.1950 H   0  0  0  0  0  0  0  0  0  0  0  0
   50.0229   12.2958   32.4919 H   0  0  0  0  0  0  0  0  0  0  0  0
   48.3211   12.3917   28.4050 H   0  0  0  0  0  0  0  0  0  0  0  0
   48.6644   10.1887   33.0096 H   0  0  0  0  0  0  0  0  0  0  0  0
   46.9638   10.2758   28.9145 H   0  0  0  0  0  0  0  0  0  0  0  0
   46.7455    4.0110   32.6597 H   0  0  0  0  0  0  0  0  0  0  0  0
   49.4024    4.8747   29.2270 H   0  0  0  0  0  0  0  0  0  0  0  0
   48.6705    2.8291   33.8561 H   0  0  0  0  0  0  0  0  0  0  0  0
   51.3435    3.6688   30.4231 H   0  0  0  0  0  0  0  0  0  0  0  0
   42.5124    9.0525   34.4557 H   0  0  0  0  0  0  0  0  0  0  0  0
   43.1993    6.8646   33.3108 H   0  0  0  0  0  0  0  0  0  0  0  0
   46.0250   11.1074   32.6887 H   0  0  0  0  0  0  0  0  0  0  0  0
   50.2230    7.1820   30.9909 H   0  0  0  0  0  0  0  0  0  0  0  0
   49.8225    8.9335   30.7946 H   0  0  0  0  0  0  0  0  0  0  0  0
   47.1469    5.4566   29.1743 H   0  0  0  0  0  0  0  0  0  0  0  0
   45.9559    4.5847   30.2202 H   0  0  0  0  0  0  0  0  0  0  0  0
  1 14  1  0  0  0  0
  2  3  2  0  0  0  0
  2  4  1  0  0  0  0
  3  5  1  0  0  0  0
  4  6  2  0  0  0  0
  5 17  2  0  0  0  0
  6 17  1  0  0  0  0
  7  9  2  0  0  0  0
  7 16  1  0  0  0  0
  8 10  1  0  0  0  0
  8 16  2  0  0  0  0
  9 18  1  0  0  0  0
 10 18  2  0  0  0  0
 11 12  2  0  0  0  0
 11 19  1  0  0  0  0
 12 20  1  0  0  0  0
 13 19  2  0  0  0  0
 13 21  1  0  0  0  0
 14 25  1  0  0  0  0
 15 16  1  0  0  0  0
 15 27  1  0  0  0  0
 17 22  1  0  0  0  0
 18 26  1  0  0  0  0
 19 32  1  0  0  0  0
 20 21  2  0  0  0  0
 20 24  1  0  0  0  0
 21 22  1  0  0  0  0
 22 23  2  0  0  0  0
 23 25  1  0  0  0  0
 23 27  1  0  0  0  0
 24 27  1  0  0  0  0
 24 29  2  0  0  0  0
 25 30  2  0  0  0  0
 26 28  1  0  0  0  0
 26 31  2  0  0  0  0
  1 33  1  0  0  0  0
  1 34  1  0  0  0  0
  1 35  1  0  0  0  0
  2 36  1  0  0  0  0
  3 37  1  0  0  0  0
  4 38  1  0  0  0  0
  5 39  1  0  0  0  0
  6 40  1  0  0  0  0
  7 41  1  0  0  0  0
  8 42  1  0  0  0  0
  9 43  1  0  0  0  0
 10 44  1  0  0  0  0
 11 45  1  0  0  0  0
 12 46  1  0  0  0  0
 13 47  1  0  0  0  0
 14 48  1  0  0  0  0
 14 49  1  0  0  0  0
 15 50  1  0  0  0  0
 15 51  1  0  0  0  0
M  CHG  1  28  -1
M  END
$$$$
