MOL0230_44
  -OEChem-06022418023D

 40 42  0     1  0  0  0  0  0999 V2000
    1.3770   13.1277   -3.3061 C   0  0  0  0  0  0  0  0  0  0  0  0
    3.0749   13.7903   -1.9277 C   0  0  0  0  0  0  0  0  0  0  0  0
    1.2074   14.4280   -3.7071 C   0  0  0  0  0  0  0  0  0  0  0  0
    2.0470   15.3859   -3.1588 C   0  0  0  0  0  0  0  0  0  0  0  0
   -4.6154   14.4980    1.0488 C   0  0  0  0  0  0  0  0  0  0  0  0
   -3.2386   15.0823    0.7542 C   0  0  0  0  0  0  0  0  0  0  0  0
   -5.5828   14.8157   -0.0858 C   0  0  0  0  0  0  0  0  0  0  0  0
   -2.7379   14.6570   -0.6271 C   0  0  0  0  0  0  0  0  0  0  0  0
   -5.0080   14.3991   -1.4405 C   0  0  0  0  0  0  0  0  0  0  0  0
    0.5118   16.5545   -4.4260 C   0  0  0  0  0  0  0  0  0  0  0  0
    0.2831   15.0457   -4.7049 C   0  0  2  0  0  0  0  0  0  0  0  0
   -1.1733   14.6371   -4.5480 C   0  0  0  0  0  0  0  0  0  0  0  0
   -1.7085   14.9981   -3.1605 C   0  0  0  0  0  0  0  0  0  0  0  0
   -3.1850   14.6544   -2.9943 C   0  0  0  0  0  0  0  0  0  0  0  0
    2.3130   12.7764   -2.4008 N   0  0  0  0  0  0  0  0  0  0  0  0
    3.0012   15.0976   -2.2584 N   0  0  0  0  0  0  0  0  0  0  0  0
    1.7532   16.6558   -3.6768 N   0  0  0  0  0  0  0  0  0  0  0  0
   -3.6993   15.0249   -1.6761 N   0  0  0  0  0  0  0  0  0  0  0  0
    0.7737   12.3181   -3.6984 H   0  0  0  0  0  0  0  0  0  0  0  0
    3.8316   13.5210   -1.2005 H   0  0  0  0  0  0  0  0  0  0  0  0
   -4.5340   13.4105    1.1667 H   0  0  0  0  0  0  0  0  0  0  0  0
   -4.9994   14.8974    1.9939 H   0  0  0  0  0  0  0  0  0  0  0  0
   -3.2867   16.1775    0.8062 H   0  0  0  0  0  0  0  0  0  0  0  0
   -2.5272   14.7572    1.5219 H   0  0  0  0  0  0  0  0  0  0  0  0
   -6.5353   14.3014    0.0860 H   0  0  0  0  0  0  0  0  0  0  0  0
   -5.7975   15.8919   -0.0933 H   0  0  0  0  0  0  0  0  0  0  0  0
   -1.7790   15.1568   -0.8110 H   0  0  0  0  0  0  0  0  0  0  0  0
   -2.5482   13.5754   -0.6326 H   0  0  0  0  0  0  0  0  0  0  0  0
   -4.9319   13.3046   -1.4868 H   0  0  0  0  0  0  0  0  0  0  0  0
   -5.7136   14.7099   -2.2206 H   0  0  0  0  0  0  0  0  0  0  0  0
    0.5704   17.1226   -5.3604 H   0  0  0  0  0  0  0  0  0  0  0  0
   -0.3031   16.9788   -3.8267 H   0  0  0  0  0  0  0  0  0  0  0  0
    0.6388   14.8010   -5.7134 H   0  0  0  0  0  0  0  0  0  0  0  0
   -1.7713   15.1369   -5.3189 H   0  0  0  0  0  0  0  0  0  0  0  0
   -1.2592   13.5581   -4.7187 H   0  0  0  0  0  0  0  0  0  0  0  0
   -1.1186   14.4816   -2.3932 H   0  0  0  0  0  0  0  0  0  0  0  0
   -1.5807   16.0749   -2.9956 H   0  0  0  0  0  0  0  0  0  0  0  0
   -3.3620   13.5834   -3.1347 H   0  0  0  0  0  0  0  0  0  0  0  0
   -3.7811   15.1980   -3.7341 H   0  0  0  0  0  0  0  0  0  0  0  0
    2.1902   17.5097   -3.3659 H   0  0  0  0  0  0  0  0  0  0  0  0
  1  3  1  0  0  0  0
  1 15  2  0  0  0  0
  2 15  1  0  0  0  0
  2 16  2  0  0  0  0
  3  4  2  0  0  0  0
  3 11  1  0  0  0  0
  4 16  1  0  0  0  0
  4 17  1  0  0  0  0
  5  6  1  0  0  0  0
  5  7  1  0  0  0  0
  6  8  1  0  0  0  0
  7  9  1  0  0  0  0
  8 18  1  0  0  0  0
  9 18  1  0  0  0  0
 10 11  1  0  0  0  0
 10 17  1  0  0  0  0
 11 12  1  0  0  0  0
 12 13  1  0  0  0  0
 13 14  1  0  0  0  0
 14 18  1  0  0  0  0
  1 19  1  0  0  0  0
  2 20  1  0  0  0  0
  5 21  1  0  0  0  0
  5 22  1  0  0  0  0
  6 23  1  0  0  0  0
  6 24  1  0  0  0  0
  7 25  1  0  0  0  0
  7 26  1  0  0  0  0
  8 27  1  0  0  0  0
  8 28  1  0  0  0  0
  9 29  1  0  0  0  0
  9 30  1  0  0  0  0
 10 31  1  0  0  0  0
 10 32  1  0  0  0  0
 11 33  1  0  0  0  0
 12 34  1  0  0  0  0
 12 35  1  0  0  0  0
 13 36  1  0  0  0  0
 13 37  1  0  0  0  0
 14 38  1  0  0  0  0
 14 39  1  0  0  0  0
 17 40  1  0  0  0  0
M  END
> <FRED Chemgauss4 score>
-9.637546

$$$$
MOL0170_5
  -OEChem-06022418023D

 29 31  0     1  0  0  0  0  0999 V2000
   -5.7208   14.9616   -1.2690 C   0  0  0  0  0  0  0  0  0  0  0  0
    0.3304   13.5188   -2.0996 C   0  0  0  0  0  0  0  0  0  0  0  0
   -4.3708   14.7062   -1.3206 C   0  0  0  0  0  0  0  0  0  0  0  0
    2.5253   13.7796   -1.5195 C   0  0  0  0  0  0  0  0  0  0  0  0
   -5.2631   14.7355   -3.3354 C   0  0  0  0  0  0  0  0  0  0  0  0
    0.4396   14.5844   -2.9557 C   0  0  0  0  0  0  0  0  0  0  0  0
    1.6721   15.2133   -3.0474 C   0  0  0  0  0  0  0  0  0  0  0  0
    0.2271   16.4849   -4.3216 C   0  0  0  0  0  0  0  0  0  0  0  0
   -0.5413   15.2065   -3.8951 C   0  0  2  0  0  0  0  0  0  0  0  0
   -1.8936   15.5182   -3.2741 C   0  0  0  0  0  0  0  0  0  0  0  0
   -2.7854   14.2795   -3.2342 C   0  0  0  0  0  0  0  0  0  0  0  0
    1.3708   13.0922   -1.3548 N   0  0  0  0  0  0  0  0  0  0  0  0
   -6.2705   14.9782   -2.5265 N   0  0  0  0  0  0  0  0  0  0  0  0
    2.7462   14.8316   -2.3370 N   0  0  0  0  0  0  0  0  0  0  0  0
   -4.0923   14.5632   -2.6507 N   0  0  0  0  0  0  0  0  0  0  0  0
    1.6205   16.2705   -3.9677 N   0  0  0  0  0  0  0  0  0  0  0  0
   -6.3250   15.1343   -0.3903 H   0  0  0  0  0  0  0  0  0  0  0  0
   -0.5922   12.9635   -1.9820 H   0  0  0  0  0  0  0  0  0  0  0  0
   -3.6133   14.6172   -0.5544 H   0  0  0  0  0  0  0  0  0  0  0  0
    3.3693   13.4459   -0.9275 H   0  0  0  0  0  0  0  0  0  0  0  0
   -5.3199   14.6728   -4.4135 H   0  0  0  0  0  0  0  0  0  0  0  0
    0.1193   16.6684   -5.3958 H   0  0  0  0  0  0  0  0  0  0  0  0
   -0.1441   17.3706   -3.7916 H   0  0  0  0  0  0  0  0  0  0  0  0
   -0.6656   14.5466   -4.7626 H   0  0  0  0  0  0  0  0  0  0  0  0
   -1.7437   15.9077   -2.2602 H   0  0  0  0  0  0  0  0  0  0  0  0
   -2.3801   16.3148   -3.8495 H   0  0  0  0  0  0  0  0  0  0  0  0
   -2.3229   13.4805   -2.6424 H   0  0  0  0  0  0  0  0  0  0  0  0
   -2.9503   13.8805   -4.2421 H   0  0  0  0  0  0  0  0  0  0  0  0
    2.3811   16.9097   -4.1399 H   0  0  0  0  0  0  0  0  0  0  0  0
  1  3  2  0  0  0  0
  1 13  1  0  0  0  0
  2  6  1  0  0  0  0
  2 12  2  0  0  0  0
  3 15  1  0  0  0  0
  4 12  1  0  0  0  0
  4 14  2  0  0  0  0
  5 13  2  0  0  0  0
  5 15  1  0  0  0  0
  6  7  2  0  0  0  0
  6  9  1  0  0  0  0
  7 14  1  0  0  0  0
  7 16  1  0  0  0  0
  8  9  1  0  0  0  0
  8 16  1  0  0  0  0
  9 10  1  0  0  0  0
 10 11  1  0  0  0  0
 11 15  1  0  0  0  0
  1 17  1  0  0  0  0
  2 18  1  0  0  0  0
  3 19  1  0  0  0  0
  4 20  1  0  0  0  0
  5 21  1  0  0  0  0
  8 22  1  0  0  0  0
  8 23  1  0  0  0  0
  9 24  1  0  0  0  0
 10 25  1  0  0  0  0
 10 26  1  0  0  0  0
 11 27  1  0  0  0  0
 11 28  1  0  0  0  0
 16 29  1  0  0  0  0
M  END
> <FRED Chemgauss4 score>
-9.358097

$$$$
MOL0066_9
  -OEChem-06022418023D

 32 34  0     1  0  0  0  0  0999 V2000
   -5.4914   14.0186    0.2880 C   0  0  0  0  0  0  0  0  0  0  0  0
   -5.8088   14.4296   -1.0065 C   0  0  0  0  0  0  0  0  0  0  0  0
   -4.1603   13.9910    0.7044 C   0  0  0  0  0  0  0  0  0  0  0  0
   -4.7952   14.8130   -1.8848 C   0  0  0  0  0  0  0  0  0  0  0  0
   -3.1468   14.3743   -0.1739 C   0  0  0  0  0  0  0  0  0  0  0  0
    2.2422   15.1496   -3.1552 C   0  0  0  0  0  0  0  0  0  0  0  0
    2.5490   13.7930   -1.3604 C   0  0  0  0  0  0  0  0  0  0  0  0
    0.9296   14.7305   -3.2889 C   0  0  0  0  0  0  0  0  0  0  0  0
   -3.4642   14.7853   -1.4685 C   0  0  0  0  0  0  0  0  0  0  0  0
    0.4905   13.8041   -2.3493 C   0  0  0  0  0  0  0  0  0  0  0  0
    0.0129   15.2932   -4.3313 C   0  0  0  0  0  0  0  0  0  0  0  0
   -0.9107   13.2485   -2.4280 C   0  0  0  0  0  0  0  0  0  0  0  0
   -1.2806   14.4798   -4.4732 C   0  0  0  0  0  0  0  0  0  0  0  0
   -2.3727   15.1976   -2.4134 C   0  0  0  0  0  0  0  0  0  0  0  0
    3.0817   14.6968   -2.2024 N   0  0  0  0  0  0  0  0  0  0  0  0
    1.2916   13.3114   -1.3771 N   0  0  0  0  0  0  0  0  0  0  0  0
   -1.8665   14.0683   -3.1903 N   0  0  2  0  0  0  0  0  0  0  0  0
   -6.2808   13.7214    0.9722 H   0  0  0  0  0  0  0  0  0  0  0  0
   -6.8452   14.4522   -1.3305 H   0  0  0  0  0  0  0  0  0  0  0  0
   -3.9129   13.6721    1.7126 H   0  0  0  0  0  0  0  0  0  0  0  0
   -5.0519   15.1316   -2.8917 H   0  0  0  0  0  0  0  0  0  0  0  0
   -2.1125   14.3495    0.1592 H   0  0  0  0  0  0  0  0  0  0  0  0
    2.6694   15.8861   -3.8287 H   0  0  0  0  0  0  0  0  0  0  0  0
    3.2020   13.4103   -0.5855 H   0  0  0  0  0  0  0  0  0  0  0  0
   -0.2352   16.3242   -4.0494 H   0  0  0  0  0  0  0  0  0  0  0  0
    0.5224   15.3237   -5.3009 H   0  0  0  0  0  0  0  0  0  0  0  0
   -0.8392   12.2313   -2.8588 H   0  0  0  0  0  0  0  0  0  0  0  0
   -1.2880   13.1280   -1.3961 H   0  0  0  0  0  0  0  0  0  0  0  0
   -2.0073   15.0971   -5.0470 H   0  0  0  0  0  0  0  0  0  0  0  0
   -1.0929   13.5869   -5.1143 H   0  0  0  0  0  0  0  0  0  0  0  0
   -2.7363   15.9548   -3.1165 H   0  0  0  0  0  0  0  0  0  0  0  0
   -1.5283   15.6361   -1.8711 H   0  0  0  0  0  0  0  0  0  0  0  0
  1  2  1  0  0  0  0
  1  3  2  0  0  0  0
  2  4  2  0  0  0  0
  3  5  1  0  0  0  0
  4  9  1  0  0  0  0
  5  9  2  0  0  0  0
  6  8  1  0  0  0  0
  6 15  2  0  0  0  0
  7 15  1  0  0  0  0
  7 16  2  0  0  0  0
  8 10  2  0  0  0  0
  8 11  1  0  0  0  0
  9 14  1  0  0  0  0
 10 12  1  0  0  0  0
 10 16  1  0  0  0  0
 11 13  1  0  0  0  0
 12 17  1  0  0  0  0
 13 17  1  0  0  0  0
 14 17  1  0  0  0  0
  1 18  1  0  0  0  0
  2 19  1  0  0  0  0
  3 20  1  0  0  0  0
  4 21  1  0  0  0  0
  5 22  1  0  0  0  0
  6 23  1  0  0  0  0
  7 24  1  0  0  0  0
 11 25  1  0  0  0  0
 11 26  1  0  0  0  0
 12 27  1  0  0  0  0
 12 28  1  0  0  0  0
 13 29  1  0  0  0  0
 13 30  1  0  0  0  0
 14 31  1  0  0  0  0
 14 32  1  0  0  0  0
M  END
> <FRED Chemgauss4 score>
-9.222572

$$$$
MOL0110_5
  -OEChem-06022418023D

 29 31  0     1  0  0  0  0  0999 V2000
    0.4253   13.8651   -1.9349 C   0  0  0  0  0  0  0  0  0  0  0  0
    2.6144   14.1361   -1.3381 C   0  0  0  0  0  0  0  0  0  0  0  0
    0.5462   14.9080   -2.8170 C   0  0  0  0  0  0  0  0  0  0  0  0
    1.7811   15.5317   -2.9116 C   0  0  0  0  0  0  0  0  0  0  0  0
   -4.8813   13.8297   -1.9236 C   0  0  0  0  0  0  0  0  0  0  0  0
   -4.2175   14.8168   -1.0045 C   0  0  0  0  0  0  0  0  0  0  0  0
    0.3529   16.7731   -4.2337 C   0  0  0  0  0  0  0  0  0  0  0  0
   -0.4230   15.5077   -3.7826 C   0  0  2  0  0  0  0  0  0  0  0  0
   -4.0254   14.9277   -2.4916 C   0  0  0  0  0  0  0  0  0  0  0  0
   -1.7812   15.8382   -3.1845 C   0  0  0  0  0  0  0  0  0  0  0  0
   -2.6773   14.6033   -3.1152 C   0  0  0  0  0  0  0  0  0  0  0  0
    1.4566   13.4557   -1.1681 N   0  0  0  0  0  0  0  0  0  0  0  0
    2.8467   15.1662   -2.1800 N   0  0  0  0  0  0  0  0  0  0  0  0
    1.7420   16.5649   -3.8594 N   0  0  0  0  0  0  0  0  0  0  0  0
   -0.4998   13.3150   -1.8130 H   0  0  0  0  0  0  0  0  0  0  0  0
    3.4512   13.8161   -0.7286 H   0  0  0  0  0  0  0  0  0  0  0  0
   -4.4997   12.8162   -1.9342 H   0  0  0  0  0  0  0  0  0  0  0  0
   -5.9534   13.9068   -2.0564 H   0  0  0  0  0  0  0  0  0  0  0  0
   -4.8444   15.5562   -0.5212 H   0  0  0  0  0  0  0  0  0  0  0  0
   -3.3914   14.4645   -0.3993 H   0  0  0  0  0  0  0  0  0  0  0  0
    0.2571   16.9290   -5.3133 H   0  0  0  0  0  0  0  0  0  0  0  0
   -0.0218   17.6729   -3.7307 H   0  0  0  0  0  0  0  0  0  0  0  0
   -0.5396   14.8259   -4.6341 H   0  0  0  0  0  0  0  0  0  0  0  0
   -4.5257   15.7405   -3.0042 H   0  0  0  0  0  0  0  0  0  0  0  0
   -1.6404   16.2533   -2.1797 H   0  0  0  0  0  0  0  0  0  0  0  0
   -2.2622   16.6142   -3.7914 H   0  0  0  0  0  0  0  0  0  0  0  0
   -2.8348   14.2001   -4.1226 H   0  0  0  0  0  0  0  0  0  0  0  0
   -2.1872   13.8199   -2.5255 H   0  0  0  0  0  0  0  0  0  0  0  0
    2.5059   17.1978   -4.0397 H   0  0  0  0  0  0  0  0  0  0  0  0
  1  3  1  0  0  0  0
  1 12  2  0  0  0  0
  2 12  1  0  0  0  0
  2 13  2  0  0  0  0
  3  4  2  0  0  0  0
  3  8  1  0  0  0  0
  4 13  1  0  0  0  0
  4 14  1  0  0  0  0
  5  6  1  0  0  0  0
  5  9  1  0  0  0  0
  6  9  1  0  0  0  0
  7  8  1  0  0  0  0
  7 14  1  0  0  0  0
  8 10  1  0  0  0  0
  9 11  1  0  0  0  0
 10 11  1  0  0  0  0
  1 15  1  0  0  0  0
  2 16  1  0  0  0  0
  5 17  1  0  0  0  0
  5 18  1  0  0  0  0
  6 19  1  0  0  0  0
  6 20  1  0  0  0  0
  7 21  1  0  0  0  0
  7 22  1  0  0  0  0
  8 23  1  0  0  0  0
  9 24  1  0  0  0  0
 10 25  1  0  0  0  0
 10 26  1  0  0  0  0
 11 27  1  0  0  0  0
 11 28  1  0  0  0  0
 14 29  1  0  0  0  0
M  END
> <FRED Chemgauss4 score>
-9.171738

$$$$
MOL0166_5
  -OEChem-06022418023D

 37 39  0     1  0  0  0  0  0999 V2000
    0.5362   13.7976   -1.8382 C   0  0  0  0  0  0  0  0  0  0  0  0
    2.7082   14.2022   -1.2545 C   0  0  0  0  0  0  0  0  0  0  0  0
    0.6312   14.7526   -2.8176 C   0  0  0  0  0  0  0  0  0  0  0  0
    1.8451   15.4068   -2.9638 C   0  0  0  0  0  0  0  0  0  0  0  0
   -6.2648   14.2904   -0.8432 C   0  0  0  0  0  0  0  0  0  0  0  0
   -5.2196   15.3619   -0.5545 C   0  0  0  0  0  0  0  0  0  0  0  0
   -6.2637   13.9305   -2.3246 C   0  0  0  0  0  0  0  0  0  0  0  0
   -3.8467   14.9596   -1.0955 C   0  0  0  0  0  0  0  0  0  0  0  0
   -4.8578   13.5737   -2.8097 C   0  0  0  0  0  0  0  0  0  0  0  0
    0.3900   16.4620   -4.4122 C   0  0  0  0  0  0  0  0  0  0  0  0
   -0.3473   15.2206   -3.8447 C   0  0  2  0  0  0  0  0  0  0  0  0
   -1.7239   15.5608   -3.2916 C   0  0  0  0  0  0  0  0  0  0  0  0
   -2.5813   14.3253   -3.0448 C   0  0  0  0  0  0  0  0  0  0  0  0
    1.5724   13.5016   -1.0272 N   0  0  0  0  0  0  0  0  0  0  0  0
    2.9144   15.1523   -2.1918 N   0  0  0  0  0  0  0  0  0  0  0  0
    1.7811   16.3402   -4.0088 N   0  0  0  0  0  0  0  0  0  0  0  0
   -3.9096   14.6620   -2.5334 N   0  0  0  0  0  0  0  0  0  0  0  0
   -0.3709   13.2301   -1.6697 H   0  0  0  0  0  0  0  0  0  0  0  0
    3.5487   13.9728   -0.6103 H   0  0  0  0  0  0  0  0  0  0  0  0
   -6.0451   13.3951   -0.2489 H   0  0  0  0  0  0  0  0  0  0  0  0
   -7.2577   14.6422   -0.5420 H   0  0  0  0  0  0  0  0  0  0  0  0
   -5.5310   16.3099   -1.0115 H   0  0  0  0  0  0  0  0  0  0  0  0
   -5.1557   15.5341    0.5259 H   0  0  0  0  0  0  0  0  0  0  0  0
   -6.9410   13.0870   -2.5004 H   0  0  0  0  0  0  0  0  0  0  0  0
   -6.6494   14.7768   -2.9073 H   0  0  0  0  0  0  0  0  0  0  0  0
   -3.1535   15.7911   -0.9188 H   0  0  0  0  0  0  0  0  0  0  0  0
   -3.4689   14.0950   -0.5336 H   0  0  0  0  0  0  0  0  0  0  0  0
   -4.5306   12.6398   -2.3336 H   0  0  0  0  0  0  0  0  0  0  0  0
   -4.9063   13.3892   -3.8898 H   0  0  0  0  0  0  0  0  0  0  0  0
    0.3006   16.5079   -5.5027 H   0  0  0  0  0  0  0  0  0  0  0  0
   -0.0207   17.3931   -4.0030 H   0  0  0  0  0  0  0  0  0  0  0  0
   -0.4314   14.4550   -4.6259 H   0  0  0  0  0  0  0  0  0  0  0  0
   -2.2384   16.2113   -4.0084 H   0  0  0  0  0  0  0  0  0  0  0  0
   -1.6079   16.1303   -2.3619 H   0  0  0  0  0  0  0  0  0  0  0  0
   -2.7284   13.7784   -3.9815 H   0  0  0  0  0  0  0  0  0  0  0  0
   -2.1069   13.6494   -2.3265 H   0  0  0  0  0  0  0  0  0  0  0  0
    2.5250   16.9787   -4.2448 H   0  0  0  0  0  0  0  0  0  0  0  0
  1  3  1  0  0  0  0
  1 14  2  0  0  0  0
  2 14  1  0  0  0  0
  2 15  2  0  0  0  0
  3  4  2  0  0  0  0
  3 11  1  0  0  0  0
  4 15  1  0  0  0  0
  4 16  1  0  0  0  0
  5  6  1  0  0  0  0
  5  7  1  0  0  0  0
  6  8  1  0  0  0  0
  7  9  1  0  0  0  0
  8 17  1  0  0  0  0
  9 17  1  0  0  0  0
 10 11  1  0  0  0  0
 10 16  1  0  0  0  0
 11 12  1  0  0  0  0
 12 13  1  0  0  0  0
 13 17  1  0  0  0  0
  1 18  1  0  0  0  0
  2 19  1  0  0  0  0
  5 20  1  0  0  0  0
  5 21  1  0  0  0  0
  6 22  1  0  0  0  0
  6 23  1  0  0  0  0
  7 24  1  0  0  0  0
  7 25  1  0  0  0  0
  8 26  1  0  0  0  0
  8 27  1  0  0  0  0
  9 28  1  0  0  0  0
  9 29  1  0  0  0  0
 10 30  1  0  0  0  0
 10 31  1  0  0  0  0
 11 32  1  0  0  0  0
 12 33  1  0  0  0  0
 12 34  1  0  0  0  0
 13 35  1  0  0  0  0
 13 36  1  0  0  0  0
 16 37  1  0  0  0  0
M  END
> <FRED Chemgauss4 score>
-8.918180

$$$$
MOL0140_21
  -OEChem-06022418023D

 32 34  0     0  0  0  0  0  0999 V2000
   -5.3232   14.6468   -1.7511 C   0  0  0  0  0  0  0  0  0  0  0  0
   -5.6539   14.9725    0.5366 C   0  0  0  0  0  0  0  0  0  0  0  0
   -2.1685   14.9440    1.3506 C   0  0  0  0  0  0  0  0  0  0  0  0
   -3.9367   14.6031   -1.6641 C   0  0  0  0  0  0  0  0  0  0  0  0
   -3.4076   14.7575   -0.3786 C   0  0  0  0  0  0  0  0  0  0  0  0
   -4.2777   14.9387    0.6920 C   0  0  0  0  0  0  0  0  0  0  0  0
    0.9196   15.2129   -3.5239 C   0  0  0  0  0  0  0  0  0  0  0  0
    0.6444   16.6535   -3.9306 C   0  0  0  0  0  0  0  0  0  0  0  0
   -0.2212   14.4024   -4.1218 C   0  0  0  0  0  0  0  0  0  0  0  0
   -0.6429   16.6029   -4.7409 C   0  0  0  0  0  0  0  0  0  0  0  0
   -3.0975   14.4022   -2.9021 C   0  0  0  0  0  0  0  0  0  0  0  0
   -2.1120   15.5426   -3.1450 C   0  0  0  0  0  0  0  0  0  0  0  0
   -6.1702   14.8233   -0.7071 N   0  0  0  0  0  0  0  0  0  0  0  0
   -2.1003   14.7635    0.0503 N   0  0  0  0  0  0  0  0  0  0  0  0
   -3.4605   15.0553    1.7849 N   0  0  0  0  0  0  0  0  0  0  0  0
   -1.3154   15.3505   -4.3709 N   0  0  0  0  0  0  0  0  0  0  0  0
   -5.8201   14.5346   -2.7114 H   0  0  0  0  0  0  0  0  0  0  0  0
   -6.3488   15.1120    1.3530 H   0  0  0  0  0  0  0  0  0  0  0  0
   -1.3294   15.0027    2.0289 H   0  0  0  0  0  0  0  0  0  0  0  0
    1.8921   14.8650   -3.8897 H   0  0  0  0  0  0  0  0  0  0  0  0
    0.9248   15.1289   -2.4298 H   0  0  0  0  0  0  0  0  0  0  0  0
    0.5161   17.2753   -3.0357 H   0  0  0  0  0  0  0  0  0  0  0  0
    1.4690   17.0764   -4.5155 H   0  0  0  0  0  0  0  0  0  0  0  0
    0.1184   13.9224   -5.0639 H   0  0  0  0  0  0  0  0  0  0  0  0
   -0.5357   13.5853   -3.4426 H   0  0  0  0  0  0  0  0  0  0  0  0
   -1.2825   17.4852   -4.5386 H   0  0  0  0  0  0  0  0  0  0  0  0
   -0.4009   16.6260   -5.8247 H   0  0  0  0  0  0  0  0  0  0  0  0
   -3.7680   14.3121   -3.7661 H   0  0  0  0  0  0  0  0  0  0  0  0
   -2.5610   13.4470   -2.8356 H   0  0  0  0  0  0  0  0  0  0  0  0
   -2.6549   16.4853   -3.2659 H   0  0  0  0  0  0  0  0  0  0  0  0
   -1.4120   15.6563   -2.3107 H   0  0  0  0  0  0  0  0  0  0  0  0
   -3.7577   15.1967    2.7411 H   0  0  0  0  0  0  0  0  0  0  0  0
  1  4  2  0  0  0  0
  1 13  1  0  0  0  0
  2  6  1  0  0  0  0
  2 13  2  0  0  0  0
  3 14  2  0  0  0  0
  3 15  1  0  0  0  0
  4  5  1  0  0  0  0
  4 11  1  0  0  0  0
  5  6  2  0  0  0  0
  5 14  1  0  0  0  0
  6 15  1  0  0  0  0
  7  8  1  0  0  0  0
  7  9  1  0  0  0  0
  8 10  1  0  0  0  0
  9 16  1  0  0  0  0
 10 16  1  0  0  0  0
 11 12  1  0  0  0  0
 12 16  1  0  0  0  0
  1 17  1  0  0  0  0
  2 18  1  0  0  0  0
  3 19  1  0  0  0  0
  7 20  1  0  0  0  0
  7 21  1  0  0  0  0
  8 22  1  0  0  0  0
  8 23  1  0  0  0  0
  9 24  1  0  0  0  0
  9 25  1  0  0  0  0
 10 26  1  0  0  0  0
 10 27  1  0  0  0  0
 11 28  1  0  0  0  0
 11 29  1  0  0  0  0
 12 30  1  0  0  0  0
 12 31  1  0  0  0  0
 15 32  1  0  0  0  0
M  END
> <FRED Chemgauss4 score>
-8.913356

$$$$
MOL0226_16
  -OEChem-06022418023D

 31 33  0     0  0  0  0  0  0999 V2000
   -4.3523   15.1716   -2.5994 C   0  0  0  0  0  0  0  0  0  0  0  0
   -4.7437   14.2706   -3.5896 C   0  0  0  0  0  0  0  0  0  0  0  0
   -3.2629   14.8770   -1.7795 C   0  0  0  0  0  0  0  0  0  0  0  0
   -4.0459   13.0750   -3.7600 C   0  0  0  0  0  0  0  0  0  0  0  0
   -2.5650   13.6813   -1.9499 C   0  0  0  0  0  0  0  0  0  0  0  0
    2.5762   14.9868   -3.5037 C   0  0  0  0  0  0  0  0  0  0  0  0
    2.6135   13.9991   -1.4422 C   0  0  0  0  0  0  0  0  0  0  0  0
    1.5070   14.2027   -3.8546 C   0  0  0  0  0  0  0  0  0  0  0  0
   -2.9565   12.7803   -2.9402 C   0  0  0  0  0  0  0  0  0  0  0  0
    1.0388   13.3138   -2.9069 C   0  0  0  0  0  0  0  0  0  0  0  0
   -0.7526   11.6272   -2.7394 C   0  0  0  0  0  0  0  0  0  0  0  0
    0.7403   14.1462   -5.1276 C   0  0  0  0  0  0  0  0  0  0  0  0
   -0.2997   13.0608   -4.8156 C   0  0  0  0  0  0  0  0  0  0  0  0
   -2.2060   11.4952   -3.1226 C   0  0  0  0  0  0  0  0  0  0  0  0
    3.1572   14.9055   -2.2883 N   0  0  0  0  0  0  0  0  0  0  0  0
    1.5677   13.1797   -1.6800 N   0  0  0  0  0  0  0  0  0  0  0  0
   -0.0531   12.5979   -3.4353 N   0  0  0  0  0  0  0  0  0  0  0  0
   -0.2778   10.8995   -1.8663 O   0  0  0  0  0  0  0  0  0  0  0  0
   -4.8950   16.1031   -2.4677 H   0  0  0  0  0  0  0  0  0  0  0  0
   -5.5913   14.5004   -4.2288 H   0  0  0  0  0  0  0  0  0  0  0  0
   -2.9572   15.5787   -1.0091 H   0  0  0  0  0  0  0  0  0  0  0  0
   -4.3581   12.3789   -4.5341 H   0  0  0  0  0  0  0  0  0  0  0  0
   -1.7176   13.4601   -1.3064 H   0  0  0  0  0  0  0  0  0  0  0  0
    3.0066   15.7113   -4.1848 H   0  0  0  0  0  0  0  0  0  0  0  0
    3.0702   13.9243   -0.4626 H   0  0  0  0  0  0  0  0  0  0  0  0
    0.2594   15.1056   -5.3406 H   0  0  0  0  0  0  0  0  0  0  0  0
    1.3832   13.8505   -5.9618 H   0  0  0  0  0  0  0  0  0  0  0  0
   -1.3216   13.4498   -4.8852 H   0  0  0  0  0  0  0  0  0  0  0  0
   -0.2117   12.2095   -5.4997 H   0  0  0  0  0  0  0  0  0  0  0  0
   -2.6543   10.7071   -2.5156 H   0  0  0  0  0  0  0  0  0  0  0  0
   -2.2588   11.1589   -4.1589 H   0  0  0  0  0  0  0  0  0  0  0  0
  1  2  1  0  0  0  0
  1  3  2  0  0  0  0
  2  4  2  0  0  0  0
  3  5  1  0  0  0  0
  4  9  1  0  0  0  0
  5  9  2  0  0  0  0
  6  8  1  0  0  0  0
  6 15  2  0  0  0  0
  7 15  1  0  0  0  0
  7 16  2  0  0  0  0
  8 10  2  0  0  0  0
  8 12  1  0  0  0  0
  9 14  1  0  0  0  0
 10 16  1  0  0  0  0
 10 17  1  0  0  0  0
 11 14  1  0  0  0  0
 11 17  1  0  0  0  0
 11 18  2  0  0  0  0
 12 13  1  0  0  0  0
 13 17  1  0  0  0  0
  1 19  1  0  0  0  0
  2 20  1  0  0  0  0
  3 21  1  0  0  0  0
  4 22  1  0  0  0  0
  5 23  1  0  0  0  0
  6 24  1  0  0  0  0
  7 25  1  0  0  0  0
 12 26  1  0  0  0  0
 12 27  1  0  0  0  0
 13 28  1  0  0  0  0
 13 29  1  0  0  0  0
 14 30  1  0  0  0  0
 14 31  1  0  0  0  0
M  END
> <FRED Chemgauss4 score>
-8.888765

$$$$
MOL0164_11
  -OEChem-06022418023D

 32 34  0     1  0  0  0  0  0999 V2000
   -4.7346   15.7256   -0.7784 C   0  0  0  0  0  0  0  0  0  0  0  0
   -5.2830   15.2014   -1.9489 C   0  0  0  0  0  0  0  0  0  0  0  0
   -3.5349   15.2164   -0.2813 C   0  0  0  0  0  0  0  0  0  0  0  0
   -4.6318   14.1679   -2.6223 C   0  0  0  0  0  0  0  0  0  0  0  0
   -2.8837   14.1829   -0.9547 C   0  0  0  0  0  0  0  0  0  0  0  0
    2.3618   15.7495   -3.3230 C   0  0  0  0  0  0  0  0  0  0  0  0
    2.5479   14.3764   -1.5068 C   0  0  0  0  0  0  0  0  0  0  0  0
    1.1306   15.2101   -3.5881 C   0  0  0  0  0  0  0  0  0  0  0  0
   -3.4321   13.6587   -2.1252 C   0  0  0  0  0  0  0  0  0  0  0  0
    0.6464   14.2302   -2.7325 C   0  0  0  0  0  0  0  0  0  0  0  0
    0.1431   15.5141   -4.6567 C   0  0  0  0  0  0  0  0  0  0  0  0
   -0.8290   14.3274   -4.4978 C   0  0  0  0  0  0  0  0  0  0  0  0
   -2.7271   12.5405   -2.8531 C   0  0  0  0  0  0  0  0  0  0  0  0
   -1.2109   12.5791   -2.6785 C   0  0  0  0  0  0  0  0  0  0  0  0
    3.1050   15.3423   -2.2745 N   0  0  0  0  0  0  0  0  0  0  0  0
    1.3441   13.7857   -1.6721 N   0  0  0  0  0  0  0  0  0  0  0  0
   -0.6322   13.8115   -3.1459 N   0  0  1  0  0  0  0  0  0  0  0  0
   -5.2412   16.5312   -0.2550 H   0  0  0  0  0  0  0  0  0  0  0  0
   -6.2166   15.5985   -2.3367 H   0  0  0  0  0  0  0  0  0  0  0  0
   -3.1071   15.6250    0.6293 H   0  0  0  0  0  0  0  0  0  0  0  0
   -5.0665   13.7655   -3.5335 H   0  0  0  0  0  0  0  0  0  0  0  0
   -1.9494   13.7924   -0.5599 H   0  0  0  0  0  0  0  0  0  0  0  0
    2.7977   16.5257   -3.9399 H   0  0  0  0  0  0  0  0  0  0  0  0
    3.1371   14.0365   -0.6634 H   0  0  0  0  0  0  0  0  0  0  0  0
   -0.3638   16.4696   -4.4953 H   0  0  0  0  0  0  0  0  0  0  0  0
    0.6277   15.5002   -5.6382 H   0  0  0  0  0  0  0  0  0  0  0  0
   -1.8637   14.6765   -4.6127 H   0  0  0  0  0  0  0  0  0  0  0  0
   -0.6472   13.5581   -5.2558 H   0  0  0  0  0  0  0  0  0  0  0  0
   -2.9711   12.6119   -3.9206 H   0  0  0  0  0  0  0  0  0  0  0  0
   -3.1214   11.5728   -2.5175 H   0  0  0  0  0  0  0  0  0  0  0  0
   -0.9553   12.4928   -1.6176 H   0  0  0  0  0  0  0  0  0  0  0  0
   -0.7214   11.7598   -3.2153 H   0  0  0  0  0  0  0  0  0  0  0  0
  1  2  1  0  0  0  0
  1  3  2  0  0  0  0
  2  4  2  0  0  0  0
  3  5  1  0  0  0  0
  4  9  1  0  0  0  0
  5  9  2  0  0  0  0
  6  8  1  0  0  0  0
  6 15  2  0  0  0  0
  7 15  1  0  0  0  0
  7 16  2  0  0  0  0
  8 10  2  0  0  0  0
  8 11  1  0  0  0  0
  9 13  1  0  0  0  0
 10 16  1  0  0  0  0
 10 17  1  0  0  0  0
 11 12  1  0  0  0  0
 12 17  1  0  0  0  0
 13 14  1  0  0  0  0
 14 17  1  0  0  0  0
  1 18  1  0  0  0  0
  2 19  1  0  0  0  0
  3 20  1  0  0  0  0
  4 21  1  0  0  0  0
  5 22  1  0  0  0  0
  6 23  1  0  0  0  0
  7 24  1  0  0  0  0
 11 25  1  0  0  0  0
 11 26  1  0  0  0  0
 12 27  1  0  0  0  0
 12 28  1  0  0  0  0
 13 29  1  0  0  0  0
 13 30  1  0  0  0  0
 14 31  1  0  0  0  0
 14 32  1  0  0  0  0
M  END
> <FRED Chemgauss4 score>
-8.696606

$$$$
MOL0143_3
  -OEChem-06022418023D

 31 33  0     0  0  0  0  0  0999 V2000
   -0.0092   14.5935    0.7703 C   0  0  0  0  0  0  0  0  0  0  0  0
   -2.3201   15.0166   -0.4635 C   0  0  0  0  0  0  0  0  0  0  0  0
   -2.1743   15.2353    0.8969 C   0  0  0  0  0  0  0  0  0  0  0  0
   -1.2314   14.5645   -1.1611 C   0  0  0  0  0  0  0  0  0  0  0  0
   -3.7143   15.2930   -0.8978 C   0  0  0  0  0  0  0  0  0  0  0  0
   -0.4258   12.3556   -4.3966 C   0  0  0  0  0  0  0  0  0  0  0  0
   -1.5788   12.0623   -3.4339 C   0  0  0  0  0  0  0  0  0  0  0  0
    0.4945   13.4497   -3.8505 C   0  0  0  0  0  0  0  0  0  0  0  0
   -4.2992   15.9635    0.3642 C   0  0  0  0  0  0  0  0  0  0  0  0
   -2.3159   13.3474   -3.0577 C   0  0  0  0  0  0  0  0  0  0  0  0
   -0.2941   14.7029   -3.4580 C   0  0  0  0  0  0  0  0  0  0  0  0
   -1.0202   15.0307    1.5524 N   0  0  0  0  0  0  0  0  0  0  0  0
   -0.0439   14.3450   -0.5607 N   0  0  0  0  0  0  0  0  0  0  0  0
   -3.3819   15.6802    1.4551 N   0  0  0  0  0  0  0  0  0  0  0  0
   -1.3606   14.3226   -2.5246 N   0  0  0  0  0  0  0  0  0  0  0  0
    0.9400   14.4207    1.2638 H   0  0  0  0  0  0  0  0  0  0  0  0
   -3.7546   15.9677   -1.7578 H   0  0  0  0  0  0  0  0  0  0  0  0
   -4.2368   14.3576   -1.1230 H   0  0  0  0  0  0  0  0  0  0  0  0
    0.1544   11.4361   -4.5687 H   0  0  0  0  0  0  0  0  0  0  0  0
   -0.8272   12.6620   -5.3734 H   0  0  0  0  0  0  0  0  0  0  0  0
   -2.2765   11.3617   -3.9007 H   0  0  0  0  0  0  0  0  0  0  0  0
   -1.1897   11.5838   -2.5328 H   0  0  0  0  0  0  0  0  0  0  0  0
    1.0365   13.0703   -2.9780 H   0  0  0  0  0  0  0  0  0  0  0  0
    1.2451   13.7104   -4.6057 H   0  0  0  0  0  0  0  0  0  0  0  0
   -4.3645   17.0482    0.2179 H   0  0  0  0  0  0  0  0  0  0  0  0
   -5.3056   15.5918    0.5829 H   0  0  0  0  0  0  0  0  0  0  0  0
   -2.8107   13.7431   -3.9484 H   0  0  0  0  0  0  0  0  0  0  0  0
   -3.0827   13.1293   -2.3090 H   0  0  0  0  0  0  0  0  0  0  0  0
    0.3723   15.4289   -2.9908 H   0  0  0  0  0  0  0  0  0  0  0  0
   -0.7153   15.1479   -4.3601 H   0  0  0  0  0  0  0  0  0  0  0  0
   -3.4941   15.9654    2.4153 H   0  0  0  0  0  0  0  0  0  0  0  0
  1 12  1  0  0  0  0
  1 13  2  0  0  0  0
  2  3  1  0  0  0  0
  2  4  2  0  0  0  0
  2  5  1  0  0  0  0
  3 12  2  0  0  0  0
  3 14  1  0  0  0  0
  4 13  1  0  0  0  0
  4 15  1  0  0  0  0
  5  9  1  0  0  0  0
  6  7  1  0  0  0  0
  6  8  1  0  0  0  0
  7 10  1  0  0  0  0
  8 11  1  0  0  0  0
  9 14  1  0  0  0  0
 10 15  1  0  0  0  0
 11 15  1  0  0  0  0
  1 16  1  0  0  0  0
  5 17  1  0  0  0  0
  5 18  1  0  0  0  0
  6 19  1  0  0  0  0
  6 20  1  0  0  0  0
  7 21  1  0  0  0  0
  7 22  1  0  0  0  0
  8 23  1  0  0  0  0
  8 24  1  0  0  0  0
  9 25  1  0  0  0  0
  9 26  1  0  0  0  0
 10 27  1  0  0  0  0
 10 28  1  0  0  0  0
 11 29  1  0  0  0  0
 11 30  1  0  0  0  0
 14 31  1  0  0  0  0
M  END
> <FRED Chemgauss4 score>
-8.679529

$$$$
MOL0061_3
  -OEChem-06022418023D

 32 34  0     1  0  0  0  0  0999 V2000
   -2.7545   14.9336    1.3143 C   0  0  0  0  0  0  0  0  0  0  0  0
   -0.4977   14.8445    0.9725 C   0  0  0  0  0  0  0  0  0  0  0  0
   -2.9496   14.8474   -0.0392 C   0  0  0  0  0  0  0  0  0  0  0  0
   -1.8319   14.7719   -0.8588 C   0  0  0  0  0  0  0  0  0  0  0  0
   -4.1978   14.8537   -0.8462 C   0  0  0  0  0  0  0  0  0  0  0  0
    1.3400   13.2820   -4.0724 C   0  0  0  0  0  0  0  0  0  0  0  0
    0.9157   14.7247   -4.3324 C   0  0  0  0  0  0  0  0  0  0  0  0
    0.1370   12.3461   -3.9964 C   0  0  0  0  0  0  0  0  0  0  0  0
   -0.1054   15.2061   -3.3030 C   0  0  0  0  0  0  0  0  0  0  0  0
   -0.8845   12.8245   -2.9661 C   0  0  0  0  0  0  0  0  0  0  0  0
   -3.6534   14.4220   -2.2232 C   0  0  0  0  0  0  0  0  0  0  0  0
   -1.3169   14.2695   -3.2381 C   0  0  0  0  0  0  0  0  0  0  0  0
   -1.5199   14.9307    1.8558 N   0  0  0  0  0  0  0  0  0  0  0  0
   -0.5775   14.7653   -0.3738 N   0  0  0  0  0  0  0  0  0  0  0  0
   -2.2221   14.7112   -2.2096 N   0  0  2  0  0  0  0  0  0  0  0  0
   -3.5785   15.0088    2.0133 H   0  0  0  0  0  0  0  0  0  0  0  0
    0.5003   14.8410    1.3947 H   0  0  0  0  0  0  0  0  0  0  0  0
   -4.9401   14.1442   -0.4701 H   0  0  0  0  0  0  0  0  0  0  0  0
   -4.6203   15.8628   -0.8863 H   0  0  0  0  0  0  0  0  0  0  0  0
    2.0182   12.9486   -4.8659 H   0  0  0  0  0  0  0  0  0  0  0  0
    1.9000   13.2320   -3.1305 H   0  0  0  0  0  0  0  0  0  0  0  0
    1.7956   15.3776   -4.3112 H   0  0  0  0  0  0  0  0  0  0  0  0
    0.4839   14.8028   -5.3378 H   0  0  0  0  0  0  0  0  0  0  0  0
   -0.3406   12.2841   -4.9821 H   0  0  0  0  0  0  0  0  0  0  0  0
    0.4733   11.3351   -3.7407 H   0  0  0  0  0  0  0  0  0  0  0  0
    0.3812   15.2625   -2.3203 H   0  0  0  0  0  0  0  0  0  0  0  0
   -0.4284   16.2217   -3.5617 H   0  0  0  0  0  0  0  0  0  0  0  0
   -1.7566   12.1600   -2.9870 H   0  0  0  0  0  0  0  0  0  0  0  0
   -0.4434   12.7459   -1.9638 H   0  0  0  0  0  0  0  0  0  0  0  0
   -3.8116   13.3442   -2.3650 H   0  0  0  0  0  0  0  0  0  0  0  0
   -4.1649   14.9463   -3.0380 H   0  0  0  0  0  0  0  0  0  0  0  0
   -1.8501   14.3105   -4.1984 H   0  0  0  0  0  0  0  0  0  0  0  0
  1  3  1  0  0  0  0
  1 13  2  0  0  0  0
  2 13  1  0  0  0  0
  2 14  2  0  0  0  0
  3  4  2  0  0  0  0
  3  5  1  0  0  0  0
  4 14  1  0  0  0  0
  4 15  1  0  0  0  0
  5 11  1  0  0  0  0
  6  7  1  0  0  0  0
  6  8  1  0  0  0  0
  7  9  1  0  0  0  0
  8 10  1  0  0  0  0
  9 12  1  0  0  0  0
 10 12  1  0  0  0  0
 11 15  1  0  0  0  0
 12 15  1  0  0  0  0
  1 16  1  0  0  0  0
  2 17  1  0  0  0  0
  5 18  1  0  0  0  0
  5 19  1  0  0  0  0
  6 20  1  0  0  0  0
  6 21  1  0  0  0  0
  7 22  1  0  0  0  0
  7 23  1  0  0  0  0
  8 24  1  0  0  0  0
  8 25  1  0  0  0  0
  9 26  1  0  0  0  0
  9 27  1  0  0  0  0
 10 28  1  0  0  0  0
 10 29  1  0  0  0  0
 11 30  1  0  0  0  0
 11 31  1  0  0  0  0
 12 32  1  0  0  0  0
M  END
> <FRED Chemgauss4 score>
-8.671771

$$$$
MOL0145_35
  -OEChem-06022418023D

 37 39  0     0  0  0  0  0  0999 V2000
   -3.1281   14.9141    1.3476 C   0  0  0  0  0  0  0  0  0  0  0  0
   -0.8651   14.7952    1.0458 C   0  0  0  0  0  0  0  0  0  0  0  0
   -3.3022   14.9577   -0.0121 C   0  0  0  0  0  0  0  0  0  0  0  0
   -2.1655   14.9136   -0.7953 C   0  0  0  0  0  0  0  0  0  0  0  0
   -1.6257   14.9426   -3.2014 C   0  0  0  0  0  0  0  0  0  0  0  0
   -4.5520   15.0476   -0.8131 C   0  0  0  0  0  0  0  0  0  0  0  0
    2.9261   12.8475   -3.5740 C   0  0  0  0  0  0  0  0  0  0  0  0
    2.9412   14.2188   -2.9057 C   0  0  0  0  0  0  0  0  0  0  0  0
    1.5055   12.3694   -3.8582 C   0  0  0  0  0  0  0  0  0  0  0  0
    2.1511   15.2482   -3.7120 C   0  0  0  0  0  0  0  0  0  0  0  0
    0.7151   13.3981   -4.6651 C   0  0  0  0  0  0  0  0  0  0  0  0
   -4.0022   15.0520   -2.2466 C   0  0  0  0  0  0  0  0  0  0  0  0
    0.7179   14.7951   -4.0269 C   0  0  0  0  0  0  0  0  0  0  0  0
   -0.1779   14.8515   -2.7864 C   0  0  0  0  0  0  0  0  0  0  0  0
   -1.9050   14.8316    1.9120 N   0  0  0  0  0  0  0  0  0  0  0  0
   -0.9191   14.8320   -0.3023 N   0  0  0  0  0  0  0  0  0  0  0  0
   -2.5308   14.9676   -2.1545 N   0  0  0  0  0  0  0  0  0  0  0  0
   -1.9217   14.9884   -4.3962 O   0  0  0  0  0  0  0  0  0  0  0  0
   -3.9644   14.9426    2.0361 H   0  0  0  0  0  0  0  0  0  0  0  0
    0.1227   14.7281    1.4859 H   0  0  0  0  0  0  0  0  0  0  0  0
   -5.1950   14.1798   -0.6386 H   0  0  0  0  0  0  0  0  0  0  0  0
   -5.0944   15.9720   -0.5944 H   0  0  0  0  0  0  0  0  0  0  0  0
    3.4957   12.8879   -4.5109 H   0  0  0  0  0  0  0  0  0  0  0  0
    3.4322   12.1203   -2.9251 H   0  0  0  0  0  0  0  0  0  0  0  0
    2.5220   14.1408   -1.8961 H   0  0  0  0  0  0  0  0  0  0  0  0
    3.9779   14.5602   -2.7954 H   0  0  0  0  0  0  0  0  0  0  0  0
    1.5422   11.4228   -4.4113 H   0  0  0  0  0  0  0  0  0  0  0  0
    0.9894   12.1669   -2.9130 H   0  0  0  0  0  0  0  0  0  0  0  0
    2.1265   16.1996   -3.1530 H   0  0  0  0  0  0  0  0  0  0  0  0
    2.6896   15.4619   -4.6502 H   0  0  0  0  0  0  0  0  0  0  0  0
    1.1306   13.4530   -5.6850 H   0  0  0  0  0  0  0  0  0  0  0  0
   -0.3237   13.0432   -4.7794 H   0  0  0  0  0  0  0  0  0  0  0  0
   -4.3740   14.1980   -2.8236 H   0  0  0  0  0  0  0  0  0  0  0  0
   -4.2753   15.9689   -2.7804 H   0  0  0  0  0  0  0  0  0  0  0  0
    0.2930   15.5052   -4.7656 H   0  0  0  0  0  0  0  0  0  0  0  0
    0.0461   15.7240   -2.1750 H   0  0  0  0  0  0  0  0  0  0  0  0
   -0.0703   13.9525   -2.1816 H   0  0  0  0  0  0  0  0  0  0  0  0
  1  3  1  0  0  0  0
  1 15  2  0  0  0  0
  2 15  1  0  0  0  0
  2 16  2  0  0  0  0
  3  4  2  0  0  0  0
  3  6  1  0  0  0  0
  4 16  1  0  0  0  0
  4 17  1  0  0  0  0
  5 14  1  0  0  0  0
  5 17  1  0  0  0  0
  5 18  2  0  0  0  0
  6 12  1  0  0  0  0
  7  8  1  0  0  0  0
  7  9  1  0  0  0  0
  8 10  1  0  0  0  0
  9 11  1  0  0  0  0
 10 13  1  0  0  0  0
 11 13  1  0  0  0  0
 12 17  1  0  0  0  0
 13 14  1  0  0  0  0
  1 19  1  0  0  0  0
  2 20  1  0  0  0  0
  6 21  1  0  0  0  0
  6 22  1  0  0  0  0
  7 23  1  0  0  0  0
  7 24  1  0  0  0  0
  8 25  1  0  0  0  0
  8 26  1  0  0  0  0
  9 27  1  0  0  0  0
  9 28  1  0  0  0  0
 10 29  1  0  0  0  0
 10 30  1  0  0  0  0
 11 31  1  0  0  0  0
 11 32  1  0  0  0  0
 12 33  1  0  0  0  0
 12 34  1  0  0  0  0
 13 35  1  0  0  0  0
 14 36  1  0  0  0  0
 14 37  1  0  0  0  0
M  END
> <FRED Chemgauss4 score>
-8.556643

$$$$
MOL0165_4
  -OEChem-06022418023D

 34 36  0     1  0  0  0  0  0999 V2000
    0.4937   13.4449   -1.8189 C   0  0  0  0  0  0  0  0  0  0  0  0
    2.6643   13.7994   -1.1988 C   0  0  0  0  0  0  0  0  0  0  0  0
    0.6198   14.4140   -2.7808 C   0  0  0  0  0  0  0  0  0  0  0  0
    1.8475   15.0479   -2.8993 C   0  0  0  0  0  0  0  0  0  0  0  0
   -5.8478   13.7055   -1.4263 C   0  0  0  0  0  0  0  0  0  0  0  0
   -5.2549   14.9119   -0.7045 C   0  0  0  0  0  0  0  0  0  0  0  0
   -4.7412   13.2074   -2.3443 C   0  0  0  0  0  0  0  0  0  0  0  0
   -3.8373   15.0398   -1.2421 C   0  0  0  0  0  0  0  0  0  0  0  0
    0.4324   16.1537   -4.3497 C   0  0  0  0  0  0  0  0  0  0  0  0
   -0.3354   14.9170   -3.8133 C   0  0  2  0  0  0  0  0  0  0  0  0
   -1.7117   15.2731   -3.2741 C   0  0  0  0  0  0  0  0  0  0  0  0
   -2.5965   14.0502   -3.0593 C   0  0  0  0  0  0  0  0  0  0  0  0
    1.5128   13.1163   -0.9988 N   0  0  0  0  0  0  0  0  0  0  0  0
    2.9010   14.7608   -2.1171 N   0  0  0  0  0  0  0  0  0  0  0  0
    1.8153   15.9994   -3.9294 N   0  0  0  0  0  0  0  0  0  0  0  0
   -3.9291   14.4062   -2.5584 N   0  0  0  0  0  0  0  0  0  0  0  0
   -0.4260   12.8916   -1.6725 H   0  0  0  0  0  0  0  0  0  0  0  0
    3.4913   13.5438   -0.5470 H   0  0  0  0  0  0  0  0  0  0  0  0
   -6.1661   12.9285   -0.7237 H   0  0  0  0  0  0  0  0  0  0  0  0
   -6.7258   14.0146   -2.0059 H   0  0  0  0  0  0  0  0  0  0  0  0
   -5.8420   15.8081   -0.9365 H   0  0  0  0  0  0  0  0  0  0  0  0
   -5.2613   14.7779    0.3821 H   0  0  0  0  0  0  0  0  0  0  0  0
   -4.1698   12.4201   -1.8393 H   0  0  0  0  0  0  0  0  0  0  0  0
   -5.1433   12.8081   -3.2787 H   0  0  0  0  0  0  0  0  0  0  0  0
   -3.5247   16.0850   -1.3071 H   0  0  0  0  0  0  0  0  0  0  0  0
   -3.1434   14.5030   -0.5850 H   0  0  0  0  0  0  0  0  0  0  0  0
    0.3593   16.2192   -5.4404 H   0  0  0  0  0  0  0  0  0  0  0  0
    0.0333   17.0854   -3.9306 H   0  0  0  0  0  0  0  0  0  0  0  0
   -0.4225   14.1661   -4.6083 H   0  0  0  0  0  0  0  0  0  0  0  0
   -2.2055   15.9452   -3.9863 H   0  0  0  0  0  0  0  0  0  0  0  0
   -1.5997   15.8253   -2.3328 H   0  0  0  0  0  0  0  0  0  0  0  0
   -2.7416   13.5208   -4.0062 H   0  0  0  0  0  0  0  0  0  0  0  0
   -2.1449   13.3542   -2.3454 H   0  0  0  0  0  0  0  0  0  0  0  0
    2.5740   16.6277   -4.1444 H   0  0  0  0  0  0  0  0  0  0  0  0
  1  3  1  0  0  0  0
  1 13  2  0  0  0  0
  2 13  1  0  0  0  0
  2 14  2  0  0  0  0
  3  4  2  0  0  0  0
  3 10  1  0  0  0  0
  4 14  1  0  0  0  0
  4 15  1  0  0  0  0
  5  6  1  0  0  0  0
  5  7  1  0  0  0  0
  6  8  1  0  0  0  0
  7 16  1  0  0  0  0
  8 16  1  0  0  0  0
  9 10  1  0  0  0  0
  9 15  1  0  0  0  0
 10 11  1  0  0  0  0
 11 12  1  0  0  0  0
 12 16  1  0  0  0  0
  1 17  1  0  0  0  0
  2 18  1  0  0  0  0
  5 19  1  0  0  0  0
  5 20  1  0  0  0  0
  6 21  1  0  0  0  0
  6 22  1  0  0  0  0
  7 23  1  0  0  0  0
  7 24  1  0  0  0  0
  8 25  1  0  0  0  0
  8 26  1  0  0  0  0
  9 27  1  0  0  0  0
  9 28  1  0  0  0  0
 10 29  1  0  0  0  0
 11 30  1  0  0  0  0
 11 31  1  0  0  0  0
 12 32  1  0  0  0  0
 12 33  1  0  0  0  0
 15 34  1  0  0  0  0
M  END
> <FRED Chemgauss4 score>
-8.490522

$$$$
MOL0224_15
  -OEChem-06022418023D

 32 34  0     1  0  0  0  0  0999 V2000
   -6.5580   14.7367   -1.8941 C   0  0  0  0  0  0  0  0  0  0  0  0
   -5.7919   15.0708   -0.7774 C   0  0  0  0  0  0  0  0  0  0  0  0
   -5.9548   14.6306   -3.1474 C   0  0  0  0  0  0  0  0  0  0  0  0
   -4.4226   15.2990   -0.9140 C   0  0  0  0  0  0  0  0  0  0  0  0
   -4.5855   14.8587   -3.2839 C   0  0  0  0  0  0  0  0  0  0  0  0
    1.9140   15.5036   -3.1248 C   0  0  0  0  0  0  0  0  0  0  0  0
    2.8708   14.1031   -1.6146 C   0  0  0  0  0  0  0  0  0  0  0  0
    0.7058   14.8332   -3.0322 C   0  0  0  0  0  0  0  0  0  0  0  0
   -3.8194   15.1929   -2.1672 C   0  0  0  0  0  0  0  0  0  0  0  0
    0.6868   13.7409   -2.1718 C   0  0  0  0  0  0  0  0  0  0  0  0
   -0.4831   15.2109   -3.8691 C   0  0  0  0  0  0  0  0  0  0  0  0
   -0.5863   12.9631   -1.9722 C   0  0  0  0  0  0  0  0  0  0  0  0
   -1.6237   13.2342   -3.0688 C   0  0  0  0  0  0  0  0  0  0  0  0
   -2.3456   15.4386   -2.3150 C   0  0  0  0  0  0  0  0  0  0  0  0
    3.0164   15.1668   -2.4251 N   0  0  0  0  0  0  0  0  0  0  0  0
    1.7602   13.3619   -1.4414 N   0  0  0  0  0  0  0  0  0  0  0  0
   -1.7676   14.6572   -3.4065 N   0  0  1  0  0  0  0  0  0  0  0  0
   -7.6239   14.5577   -1.7874 H   0  0  0  0  0  0  0  0  0  0  0  0
   -6.2611   15.1524    0.1987 H   0  0  0  0  0  0  0  0  0  0  0  0
   -6.5508   14.3694   -4.0168 H   0  0  0  0  0  0  0  0  0  0  0  0
   -3.8336   15.5591   -0.0384 H   0  0  0  0  0  0  0  0  0  0  0  0
   -4.1242   14.7739   -4.2643 H   0  0  0  0  0  0  0  0  0  0  0  0
    2.0344   16.3592   -3.7821 H   0  0  0  0  0  0  0  0  0  0  0  0
    3.7408   13.8108   -1.0394 H   0  0  0  0  0  0  0  0  0  0  0  0
   -0.5293   16.3159   -3.9060 H   0  0  0  0  0  0  0  0  0  0  0  0
   -0.3066   14.8628   -4.9030 H   0  0  0  0  0  0  0  0  0  0  0  0
   -0.3316   11.8961   -1.9633 H   0  0  0  0  0  0  0  0  0  0  0  0
   -1.0183   13.2093   -0.9955 H   0  0  0  0  0  0  0  0  0  0  0  0
   -1.3223   12.6557   -3.9704 H   0  0  0  0  0  0  0  0  0  0  0  0
   -2.6096   12.8073   -2.7688 H   0  0  0  0  0  0  0  0  0  0  0  0
   -2.1490   16.4972   -2.5171 H   0  0  0  0  0  0  0  0  0  0  0  0
   -1.8097   15.1779   -1.3963 H   0  0  0  0  0  0  0  0  0  0  0  0
  1  2  1  0  0  0  0
  1  3  2  0  0  0  0
  2  4  2  0  0  0  0
  3  5  1  0  0  0  0
  4  9  1  0  0  0  0
  5  9  2  0  0  0  0
  6  8  1  0  0  0  0
  6 15  2  0  0  0  0
  7 15  1  0  0  0  0
  7 16  2  0  0  0  0
  8 10  2  0  0  0  0
  8 11  1  0  0  0  0
  9 14  1  0  0  0  0
 10 12  1  0  0  0  0
 10 16  1  0  0  0  0
 11 17  1  0  0  0  0
 12 13  1  0  0  0  0
 13 17  1  0  0  0  0
 14 17  1  0  0  0  0
  1 18  1  0  0  0  0
  2 19  1  0  0  0  0
  3 20  1  0  0  0  0
  4 21  1  0  0  0  0
  5 22  1  0  0  0  0
  6 23  1  0  0  0  0
  7 24  1  0  0  0  0
 11 25  1  0  0  0  0
 11 26  1  0  0  0  0
 12 27  1  0  0  0  0
 12 28  1  0  0  0  0
 13 29  1  0  0  0  0
 13 30  1  0  0  0  0
 14 31  1  0  0  0  0
 14 32  1  0  0  0  0
M  END
> <FRED Chemgauss4 score>
-8.456111

$$$$
MOL0159_2
  -OEChem-06022418023D

 31 33  0     1  0  0  0  0  0999 V2000
    0.6240   13.7533   -2.3065 C   0  0  0  0  0  0  0  0  0  0  0  0
    2.7797   13.9625   -1.5778 C   0  0  0  0  0  0  0  0  0  0  0  0
    0.7820   14.8819   -3.0692 C   0  0  0  0  0  0  0  0  0  0  0  0
    2.0165   15.5127   -3.0380 C   0  0  0  0  0  0  0  0  0  0  0  0
   -4.4163   13.6265   -3.1212 C   0  0  0  0  0  0  0  0  0  0  0  0
   -4.1004   13.5181   -4.6099 C   0  0  0  0  0  0  0  0  0  0  0  0
   -3.4595   14.6825   -2.5872 C   0  0  0  0  0  0  0  0  0  0  0  0
   -2.9827   14.5212   -4.8535 C   0  0  0  0  0  0  0  0  0  0  0  0
    0.6477   16.8833   -4.2937 C   0  0  0  0  0  0  0  0  0  0  0  0
   -0.1422   15.5776   -4.0144 C   0  0  2  0  0  0  0  0  0  0  0  0
   -1.5299   15.8437   -3.4530 C   0  0  0  0  0  0  0  0  0  0  0  0
    1.6188   13.2674   -1.5363 N   0  0  0  0  0  0  0  0  0  0  0  0
    3.0470   15.0742   -2.2964 N   0  0  0  0  0  0  0  0  0  0  0  0
    2.0179   16.6383   -3.8749 N   0  0  0  0  0  0  0  0  0  0  0  0
   -2.3485   14.6288   -3.5387 N   0  0  0  0  0  0  0  0  0  0  0  0
   -0.3029   13.1930   -2.2878 H   0  0  0  0  0  0  0  0  0  0  0  0
    3.5875   13.5816   -0.9642 H   0  0  0  0  0  0  0  0  0  0  0  0
   -5.4602   13.9066   -2.9474 H   0  0  0  0  0  0  0  0  0  0  0  0
   -4.2419   12.6601   -2.6336 H   0  0  0  0  0  0  0  0  0  0  0  0
   -3.7685   12.5002   -4.8454 H   0  0  0  0  0  0  0  0  0  0  0  0
   -4.9775   13.7369   -5.2277 H   0  0  0  0  0  0  0  0  0  0  0  0
   -3.9489   15.6622   -2.6000 H   0  0  0  0  0  0  0  0  0  0  0  0
   -3.1421   14.4571   -1.5671 H   0  0  0  0  0  0  0  0  0  0  0  0
   -2.2889   14.1705   -5.6203 H   0  0  0  0  0  0  0  0  0  0  0  0
   -3.4097   15.4786   -5.1707 H   0  0  0  0  0  0  0  0  0  0  0  0
    0.6039   17.1499   -5.3549 H   0  0  0  0  0  0  0  0  0  0  0  0
    0.2437   17.7261   -3.7196 H   0  0  0  0  0  0  0  0  0  0  0  0
   -0.2131   14.9874   -4.9364 H   0  0  0  0  0  0  0  0  0  0  0  0
   -1.4115   16.1486   -2.4125 H   0  0  0  0  0  0  0  0  0  0  0  0
   -1.9764   16.6444   -4.0439 H   0  0  0  0  0  0  0  0  0  0  0  0
    2.7862   17.2869   -3.9511 H   0  0  0  0  0  0  0  0  0  0  0  0
  1  3  1  0  0  0  0
  1 12  2  0  0  0  0
  2 12  1  0  0  0  0
  2 13  2  0  0  0  0
  3  4  2  0  0  0  0
  3 10  1  0  0  0  0
  4 13  1  0  0  0  0
  4 14  1  0  0  0  0
  5  6  1  0  0  0  0
  5  7  1  0  0  0  0
  6  8  1  0  0  0  0
  7 15  1  0  0  0  0
  8 15  1  0  0  0  0
  9 10  1  0  0  0  0
  9 14  1  0  0  0  0
 10 11  1  0  0  0  0
 11 15  1  0  0  0  0
  1 16  1  0  0  0  0
  2 17  1  0  0  0  0
  5 18  1  0  0  0  0
  5 19  1  0  0  0  0
  6 20  1  0  0  0  0
  6 21  1  0  0  0  0
  7 22  1  0  0  0  0
  7 23  1  0  0  0  0
  8 24  1  0  0  0  0
  8 25  1  0  0  0  0
  9 26  1  0  0  0  0
  9 27  1  0  0  0  0
 10 28  1  0  0  0  0
 11 29  1  0  0  0  0
 11 30  1  0  0  0  0
 14 31  1  0  0  0  0
M  END
> <FRED Chemgauss4 score>
-8.455502

$$$$
MOL0130_1
  -OEChem-06022418023D

 14 15  0     0  0  0  0  0  0999 V2000
    0.2267   15.6588   -4.4746 C   0  0  0  0  0  0  0  0  0  0  0  0
    0.2480   13.8598   -2.5815 C   0  0  0  0  0  0  0  0  0  0  0  0
    1.2080   16.5605   -4.8282 C   0  0  0  0  0  0  0  0  0  0  0  0
    2.2571   13.9239   -1.4403 C   0  0  0  0  0  0  0  0  0  0  0  0
    0.7194   14.8982   -3.3834 C   0  0  0  0  0  0  0  0  0  0  0  0
    1.9973   15.3683   -3.1062 C   0  0  0  0  0  0  0  0  0  0  0  0
    1.0341   13.3688   -1.5957 N   0  0  0  0  0  0  0  0  0  0  0  0
    2.8250   14.9242   -2.1442 N   0  0  0  0  0  0  0  0  0  0  0  0
    2.2778   16.3759   -3.9904 N   0  0  0  0  0  0  0  0  0  0  0  0
   -0.7377   15.5624   -4.9540 H   0  0  0  0  0  0  0  0  0  0  0  0
   -0.7291   13.4074   -2.6960 H   0  0  0  0  0  0  0  0  0  0  0  0
    1.2394   17.3164   -5.6002 H   0  0  0  0  0  0  0  0  0  0  0  0
    2.8622   13.5082   -0.6418 H   0  0  0  0  0  0  0  0  0  0  0  0
    3.1405   16.9014   -4.0208 H   0  0  0  0  0  0  0  0  0  0  0  0
  1  3  2  0  0  0  0
  1  5  1  0  0  0  0
  2  5  1  0  0  0  0
  2  7  2  0  0  0  0
  3  9  1  0  0  0  0
  4  7  1  0  0  0  0
  4  8  2  0  0  0  0
  5  6  2  0  0  0  0
  6  8  1  0  0  0  0
  6  9  1  0  0  0  0
  1 10  1  0  0  0  0
  2 11  1  0  0  0  0
  3 12  1  0  0  0  0
  4 13  1  0  0  0  0
  9 14  1  0  0  0  0
M  END
> <FRED Chemgauss4 score>
-8.436111

$$$$
MOL0223_1
  -OEChem-06022418023D

 32 34  0     1  0  0  0  0  0999 V2000
   -1.2517   14.6438   -0.9810 C   0  0  0  0  0  0  0  0  0  0  0  0
   -0.0648   14.6024    0.9707 C   0  0  0  0  0  0  0  0  0  0  0  0
   -2.3925   14.9046   -0.2679 C   0  0  0  0  0  0  0  0  0  0  0  0
   -2.2871   15.0073    1.1080 C   0  0  0  0  0  0  0  0  0  0  0  0
   -3.7923   15.1297   -0.7201 C   0  0  0  0  0  0  0  0  0  0  0  0
   -8.2932   13.1685    1.3261 C   0  0  0  0  0  0  0  0  0  0  0  0
   -7.2766   13.2326    2.4617 C   0  0  0  0  0  0  0  0  0  0  0  0
   -7.6113   13.0058   -0.0288 C   0  0  0  0  0  0  0  0  0  0  0  0
   -6.2350   14.3237    2.2245 C   0  0  0  0  0  0  0  0  0  0  0  0
   -6.5701   14.0963   -0.2702 C   0  0  0  0  0  0  0  0  0  0  0  0
   -5.5404   14.1581    0.8660 C   0  0  0  0  0  0  0  0  0  0  0  0
   -4.5426   15.2901    0.6288 C   0  0  1  0  0  0  0  0  0  0  0  0
   -0.0562   14.4837   -0.3779 N   0  0  0  0  0  0  0  0  0  0  0  0
   -1.1255   14.8601    1.7664 N   0  0  0  0  0  0  0  0  0  0  0  0
   -3.5347   15.2775    1.6809 N   0  0  0  0  0  0  0  0  0  0  0  0
   -1.2534   14.5551   -2.0606 H   0  0  0  0  0  0  0  0  0  0  0  0
    0.8895   14.4766    1.4683 H   0  0  0  0  0  0  0  0  0  0  0  0
   -3.8528   16.0527   -1.3061 H   0  0  0  0  0  0  0  0  0  0  0  0
   -4.1590   14.2852   -1.3115 H   0  0  0  0  0  0  0  0  0  0  0  0
   -8.9822   12.3332    1.4947 H   0  0  0  0  0  0  0  0  0  0  0  0
   -8.8950   14.0856    1.3234 H   0  0  0  0  0  0  0  0  0  0  0  0
   -7.7950   13.4173    3.4094 H   0  0  0  0  0  0  0  0  0  0  0  0
   -6.7733   12.2625    2.5568 H   0  0  0  0  0  0  0  0  0  0  0  0
   -7.1276   12.0224   -0.0787 H   0  0  0  0  0  0  0  0  0  0  0  0
   -8.3640   13.0317   -0.8249 H   0  0  0  0  0  0  0  0  0  0  0  0
   -6.7235   15.3052    2.2769 H   0  0  0  0  0  0  0  0  0  0  0  0
   -5.4921   14.2961    3.0306 H   0  0  0  0  0  0  0  0  0  0  0  0
   -6.0638   13.9082   -1.2245 H   0  0  0  0  0  0  0  0  0  0  0  0
   -7.0785   15.0644   -0.3664 H   0  0  0  0  0  0  0  0  0  0  0  0
   -4.9815   13.2128    0.8769 H   0  0  0  0  0  0  0  0  0  0  0  0
   -5.0816   16.2437    0.6431 H   0  0  0  0  0  0  0  0  0  0  0  0
   -3.7052   15.3730    2.6697 H   0  0  0  0  0  0  0  0  0  0  0  0
  1  3  1  0  0  0  0
  1 13  2  0  0  0  0
  2 13  1  0  0  0  0
  2 14  2  0  0  0  0
  3  4  2  0  0  0  0
  3  5  1  0  0  0  0
  4 14  1  0  0  0  0
  4 15  1  0  0  0  0
  5 12  1  0  0  0  0
  6  7  1  0  0  0  0
  6  8  1  0  0  0  0
  7  9  1  0  0  0  0
  8 10  1  0  0  0  0
  9 11  1  0  0  0  0
 10 11  1  0  0  0  0
 11 12  1  0  0  0  0
 12 15  1  0  0  0  0
  1 16  1  0  0  0  0
  2 17  1  0  0  0  0
  5 18  1  0  0  0  0
  5 19  1  0  0  0  0
  6 20  1  0  0  0  0
  6 21  1  0  0  0  0
  7 22  1  0  0  0  0
  7 23  1  0  0  0  0
  8 24  1  0  0  0  0
  8 25  1  0  0  0  0
  9 26  1  0  0  0  0
  9 27  1  0  0  0  0
 10 28  1  0  0  0  0
 10 29  1  0  0  0  0
 11 30  1  0  0  0  0
 12 31  1  0  0  0  0
 15 32  1  0  0  0  0
M  END
> <FRED Chemgauss4 score>
-8.428825

$$$$
MOL0114_2
  -OEChem-06022418023D

 32 34  0     1  0  0  0  0  0999 V2000
    1.6841   15.4060   -3.0423 C   0  0  0  0  0  0  0  0  0  0  0  0
    2.4037   13.8985   -1.4839 C   0  0  0  0  0  0  0  0  0  0  0  0
    0.5152   14.7015   -3.1667 C   0  0  0  0  0  0  0  0  0  0  0  0
    0.3582   13.5652   -2.3928 C   0  0  0  0  0  0  0  0  0  0  0  0
   -0.6704   14.9304   -4.0364 C   0  0  0  0  0  0  0  0  0  0  0  0
   -4.7280   14.5280   -0.6208 C   0  0  0  0  0  0  0  0  0  0  0  0
   -5.0756   13.6671   -1.8313 C   0  0  0  0  0  0  0  0  0  0  0  0
   -3.7986   15.6774   -0.9981 C   0  0  0  0  0  0  0  0  0  0  0  0
   -3.8220   13.1630   -2.5427 C   0  0  0  0  0  0  0  0  0  0  0  0
   -2.5429   15.1768   -1.7083 C   0  0  0  0  0  0  0  0  0  0  0  0
   -2.8886   14.3174   -2.9319 C   0  0  0  0  0  0  0  0  0  0  0  0
   -1.6187   13.7848   -3.5931 C   0  0  2  0  0  0  0  0  0  0  0  0
    2.6597   15.0223   -2.1940 N   0  0  0  0  0  0  0  0  0  0  0  0
    1.2933   13.1308   -1.5318 N   0  0  0  0  0  0  0  0  0  0  0  0
   -0.8816   12.9659   -2.6399 N   0  0  0  0  0  0  0  0  0  0  0  0
    1.8821   16.3021   -3.6178 H   0  0  0  0  0  0  0  0  0  0  0  0
    3.1796   13.5783   -0.7985 H   0  0  0  0  0  0  0  0  0  0  0  0
   -1.0985   15.9236   -3.8698 H   0  0  0  0  0  0  0  0  0  0  0  0
   -0.3915   14.8139   -5.0888 H   0  0  0  0  0  0  0  0  0  0  0  0
   -5.6467   14.9274   -0.1765 H   0  0  0  0  0  0  0  0  0  0  0  0
   -4.2462   13.9054    0.1431 H   0  0  0  0  0  0  0  0  0  0  0  0
   -5.6871   12.8150   -1.5132 H   0  0  0  0  0  0  0  0  0  0  0  0
   -5.6830   14.2517   -2.5332 H   0  0  0  0  0  0  0  0  0  0  0  0
   -4.3318   16.3790   -1.6514 H   0  0  0  0  0  0  0  0  0  0  0  0
   -3.5159   16.2329   -0.0967 H   0  0  0  0  0  0  0  0  0  0  0  0
   -3.2932   12.4605   -1.8857 H   0  0  0  0  0  0  0  0  0  0  0  0
   -4.1151   12.6007   -3.4373 H   0  0  0  0  0  0  0  0  0  0  0  0
   -1.9336   16.0356   -2.0141 H   0  0  0  0  0  0  0  0  0  0  0  0
   -1.9379   14.5942   -1.0017 H   0  0  0  0  0  0  0  0  0  0  0  0
   -3.4090   14.9509   -3.6626 H   0  0  0  0  0  0  0  0  0  0  0  0
   -1.9007   13.1793   -4.4612 H   0  0  0  0  0  0  0  0  0  0  0  0
   -1.2227   12.1377   -2.1774 H   0  0  0  0  0  0  0  0  0  0  0  0
  1  3  1  0  0  0  0
  1 13  2  0  0  0  0
  2 13  1  0  0  0  0
  2 14  2  0  0  0  0
  3  4  2  0  0  0  0
  3  5  1  0  0  0  0
  4 14  1  0  0  0  0
  4 15  1  0  0  0  0
  5 12  1  0  0  0  0
  6  7  1  0  0  0  0
  6  8  1  0  0  0  0
  7  9  1  0  0  0  0
  8 10  1  0  0  0  0
  9 11  1  0  0  0  0
 10 11  1  0  0  0  0
 11 12  1  0  0  0  0
 12 15  1  0  0  0  0
  1 16  1  0  0  0  0
  2 17  1  0  0  0  0
  5 18  1  0  0  0  0
  5 19  1  0  0  0  0
  6 20  1  0  0  0  0
  6 21  1  0  0  0  0
  7 22  1  0  0  0  0
  7 23  1  0  0  0  0
  8 24  1  0  0  0  0
  8 25  1  0  0  0  0
  9 26  1  0  0  0  0
  9 27  1  0  0  0  0
 10 28  1  0  0  0  0
 10 29  1  0  0  0  0
 11 30  1  0  0  0  0
 12 31  1  0  0  0  0
 15 32  1  0  0  0  0
M  END
> <FRED Chemgauss4 score>
-8.412954

$$$$
MOL0108_3
  -OEChem-06022418023D

 27 29  0     0  0  0  0  0  0999 V2000
    2.5023   14.1663   -1.5102 C   0  0  0  0  0  0  0  0  0  0  0  0
    0.6599   15.0438   -3.2064 C   0  0  0  0  0  0  0  0  0  0  0  0
    1.9111   15.6336   -3.1268 C   0  0  0  0  0  0  0  0  0  0  0  0
    0.3930   13.9899   -2.3731 C   0  0  0  0  0  0  0  0  0  0  0  0
   -2.1320   13.9984   -2.1726 C   0  0  0  0  0  0  0  0  0  0  0  0
   -0.1923   15.7423   -4.2038 C   0  0  0  0  0  0  0  0  0  0  0  0
   -3.1950   12.9256   -2.2439 C   0  0  0  0  0  0  0  0  0  0  0  0
   -2.5264   11.8220   -3.0389 C   0  0  0  0  0  0  0  0  0  0  0  0
    0.8371   16.6659   -4.8904 C   0  0  0  0  0  0  0  0  0  0  0  0
   -1.0648   11.9565   -2.6659 C   0  0  0  0  0  0  0  0  0  0  0  0
    2.8657   15.2154   -2.2798 N   0  0  0  0  0  0  0  0  0  0  0  0
    1.3117   13.5206   -1.5045 N   0  0  0  0  0  0  0  0  0  0  0  0
    2.0103   16.6994   -4.0334 N   0  0  0  0  0  0  0  0  0  0  0  0
   -0.8934   13.3758   -2.4225 N   0  0  0  0  0  0  0  0  0  0  0  0
   -2.3868   15.1584   -1.8835 O   0  0  0  0  0  0  0  0  0  0  0  0
    3.2487   13.7988   -0.8160 H   0  0  0  0  0  0  0  0  0  0  0  0
   -0.6423   15.0509   -4.9219 H   0  0  0  0  0  0  0  0  0  0  0  0
   -0.9688   16.3274   -3.7006 H   0  0  0  0  0  0  0  0  0  0  0  0
   -3.4356   12.6018   -1.2264 H   0  0  0  0  0  0  0  0  0  0  0  0
   -4.0941   13.2987   -2.7403 H   0  0  0  0  0  0  0  0  0  0  0  0
   -2.9326   10.8340   -2.8043 H   0  0  0  0  0  0  0  0  0  0  0  0
   -2.6582   11.9999   -4.1131 H   0  0  0  0  0  0  0  0  0  0  0  0
    1.1147   16.2578   -5.8697 H   0  0  0  0  0  0  0  0  0  0  0  0
    0.4296   17.6697   -5.0478 H   0  0  0  0  0  0  0  0  0  0  0  0
   -0.8348   11.4196   -1.7382 H   0  0  0  0  0  0  0  0  0  0  0  0
   -0.3990   11.6148   -3.4649 H   0  0  0  0  0  0  0  0  0  0  0  0
    2.8506   17.2319   -4.1962 H   0  0  0  0  0  0  0  0  0  0  0  0
  1 11  1  0  0  0  0
  1 12  2  0  0  0  0
  2  3  1  0  0  0  0
  2  4  2  0  0  0  0
  2  6  1  0  0  0  0
  3 11  2  0  0  0  0
  3 13  1  0  0  0  0
  4 12  1  0  0  0  0
  4 14  1  0  0  0  0
  5  7  1  0  0  0  0
  5 14  1  0  0  0  0
  5 15  2  0  0  0  0
  6  9  1  0  0  0  0
  7  8  1  0  0  0  0
  8 10  1  0  0  0  0
  9 13  1  0  0  0  0
 10 14  1  0  0  0  0
  1 16  1  0  0  0  0
  6 17  1  0  0  0  0
  6 18  1  0  0  0  0
  7 19  1  0  0  0  0
  7 20  1  0  0  0  0
  8 21  1  0  0  0  0
  8 22  1  0  0  0  0
  9 23  1  0  0  0  0
  9 24  1  0  0  0  0
 10 25  1  0  0  0  0
 10 26  1  0  0  0  0
 13 27  1  0  0  0  0
M  END
> <FRED Chemgauss4 score>
-8.362341

$$$$
MOL0175_3
  -OEChem-06022418023D

 20 21  0     0  0  0  0  0  0999 V2000
    2.1852   14.1845   -1.3150 C   0  0  0  0  0  0  0  0  0  0  0  0
    0.3429   15.1253   -2.9771 C   0  0  0  0  0  0  0  0  0  0  0  0
    1.6058   15.6901   -2.9004 C   0  0  0  0  0  0  0  0  0  0  0  0
    0.0644   14.0625   -2.1590 C   0  0  0  0  0  0  0  0  0  0  0  0
   -0.5058   15.8567   -3.9536 C   0  0  0  0  0  0  0  0  0  0  0  0
    0.5340   16.7724   -4.6351 C   0  0  0  0  0  0  0  0  0  0  0  0
   -1.6072   12.7405   -3.8826 C   0  0  0  0  0  0  0  0  0  0  0  0
    2.5607   15.2397   -2.0705 N   0  0  0  0  0  0  0  0  0  0  0  0
    0.9827   13.5613   -1.3080 N   0  0  0  0  0  0  0  0  0  0  0  0
    1.7161   16.7691   -3.7899 N   0  0  0  0  0  0  0  0  0  0  0  0
   -1.5311   13.2772   -2.1590 S   0  0  0  0  0  0  0  0  0  0  0  0
    2.9310   13.7912   -0.6344 H   0  0  0  0  0  0  0  0  0  0  0  0
   -0.9740   15.1890   -4.6825 H   0  0  0  0  0  0  0  0  0  0  0  0
   -1.2663   16.4486   -3.4340 H   0  0  0  0  0  0  0  0  0  0  0  0
    0.7947   16.3759   -5.6238 H   0  0  0  0  0  0  0  0  0  0  0  0
    0.1438   17.7860   -4.7716 H   0  0  0  0  0  0  0  0  0  0  0  0
   -2.5509   12.2221   -4.0692 H   0  0  0  0  0  0  0  0  0  0  0  0
   -0.7787   12.0608   -4.0965 H   0  0  0  0  0  0  0  0  0  0  0  0
   -1.5386   13.6072   -4.5446 H   0  0  0  0  0  0  0  0  0  0  0  0
    2.5654   17.2872   -3.9529 H   0  0  0  0  0  0  0  0  0  0  0  0
  1  8  1  0  0  0  0
  1  9  2  0  0  0  0
  2  3  1  0  0  0  0
  2  4  2  0  0  0  0
  2  5  1  0  0  0  0
  3  8  2  0  0  0  0
  3 10  1  0  0  0  0
  4  9  1  0  0  0  0
  4 11  1  0  0  0  0
  5  6  1  0  0  0  0
  6 10  1  0  0  0  0
  7 11  1  0  0  0  0
  1 12  1  0  0  0  0
  5 13  1  0  0  0  0
  5 14  1  0  0  0  0
  6 15  1  0  0  0  0
  6 16  1  0  0  0  0
  7 17  1  0  0  0  0
  7 18  1  0  0  0  0
  7 19  1  0  0  0  0
 10 20  1  0  0  0  0
M  END
> <FRED Chemgauss4 score>
-8.296511

$$$$
MOL0076_13
  -OEChem-06022418023D

 31 33  0     0  0  0  0  0  0999 V2000
    2.9168   14.9541   -3.4559 C   0  0  0  0  0  0  0  0  0  0  0  0
    2.6663   13.5882   -3.5873 C   0  0  0  0  0  0  0  0  0  0  0  0
    1.8553   15.8465   -3.3058 C   0  0  0  0  0  0  0  0  0  0  0  0
    1.3544   13.1148   -3.5687 C   0  0  0  0  0  0  0  0  0  0  0  0
    0.5434   15.3731   -3.2873 C   0  0  0  0  0  0  0  0  0  0  0  0
   -0.3486   14.6397    0.5877 C   0  0  0  0  0  0  0  0  0  0  0  0
   -2.7652   15.0054   -0.4455 C   0  0  0  0  0  0  0  0  0  0  0  0
    0.2929   14.0072   -3.4187 C   0  0  0  0  0  0  0  0  0  0  0  0
   -2.5091   15.2332    0.8970 C   0  0  0  0  0  0  0  0  0  0  0  0
   -1.7299   14.5749   -1.2323 C   0  0  0  0  0  0  0  0  0  0  0  0
   -4.1973   15.2485   -0.7599 C   0  0  0  0  0  0  0  0  0  0  0  0
   -4.6877   15.9110    0.5457 C   0  0  0  0  0  0  0  0  0  0  0  0
   -1.1195   13.4983   -3.3989 C   0  0  0  0  0  0  0  0  0  0  0  0
   -1.2989   15.0574    1.4521 N   0  0  0  0  0  0  0  0  0  0  0  0
   -0.4909   14.3849   -0.7349 N   0  0  0  0  0  0  0  0  0  0  0  0
   -3.6745   15.6532    1.5551 N   0  0  0  0  0  0  0  0  0  0  0  0
   -1.9730   14.3205   -2.6001 N   0  0  0  0  0  0  0  0  0  0  0  0
    3.9385   15.3224   -3.4690 H   0  0  0  0  0  0  0  0  0  0  0  0
    3.4928   12.8930   -3.7030 H   0  0  0  0  0  0  0  0  0  0  0  0
    2.0500   16.9099   -3.2024 H   0  0  0  0  0  0  0  0  0  0  0  0
    1.1687   12.0489   -3.6719 H   0  0  0  0  0  0  0  0  0  0  0  0
   -0.2773   16.0758   -3.1700 H   0  0  0  0  0  0  0  0  0  0  0  0
    0.6429   14.4905    0.9989 H   0  0  0  0  0  0  0  0  0  0  0  0
   -4.3261   15.9185   -1.6149 H   0  0  0  0  0  0  0  0  0  0  0  0
   -4.7156   14.3006   -0.9375 H   0  0  0  0  0  0  0  0  0  0  0  0
   -4.7899   16.9934    0.4031 H   0  0  0  0  0  0  0  0  0  0  0  0
   -5.6631   15.5178    0.8503 H   0  0  0  0  0  0  0  0  0  0  0  0
   -1.5331   13.4677   -4.4128 H   0  0  0  0  0  0  0  0  0  0  0  0
   -1.1647   12.4802   -2.9982 H   0  0  0  0  0  0  0  0  0  0  0  0
   -3.7110   15.9399    2.5208 H   0  0  0  0  0  0  0  0  0  0  0  0
   -2.7845   14.7480   -3.0026 H   0  0  0  0  0  0  0  0  0  0  0  0
  1  2  1  0  0  0  0
  1  3  2  0  0  0  0
  2  4  2  0  0  0  0
  3  5  1  0  0  0  0
  4  8  1  0  0  0  0
  5  8  2  0  0  0  0
  6 14  1  0  0  0  0
  6 15  2  0  0  0  0
  7  9  1  0  0  0  0
  7 10  2  0  0  0  0
  7 11  1  0  0  0  0
  8 13  1  0  0  0  0
  9 14  2  0  0  0  0
  9 16  1  0  0  0  0
 10 15  1  0  0  0  0
 10 17  1  0  0  0  0
 11 12  1  0  0  0  0
 12 16  1  0  0  0  0
 13 17  1  0  0  0  0
  1 18  1  0  0  0  0
  2 19  1  0  0  0  0
  3 20  1  0  0  0  0
  4 21  1  0  0  0  0
  5 22  1  0  0  0  0
  6 23  1  0  0  0  0
 11 24  1  0  0  0  0
 11 25  1  0  0  0  0
 12 26  1  0  0  0  0
 12 27  1  0  0  0  0
 13 28  1  0  0  0  0
 13 29  1  0  0  0  0
 16 30  1  0  0  0  0
 17 31  1  0  0  0  0
M  END
> <FRED Chemgauss4 score>
-8.295298

$$$$
MOL0036_1
  -OEChem-06022418023D

 13 14  0     0  0  0  0  0  0999 V2000
    0.1018   13.5653   -2.1911 C   0  0  0  0  0  0  0  0  0  0  0  0
    2.0377   14.1790   -1.0763 C   0  0  0  0  0  0  0  0  0  0  0  0
    0.6008   15.7945   -4.8526 C   0  0  0  0  0  0  0  0  0  0  0  0
    0.4347   14.4944   -3.1717 C   0  0  0  0  0  0  0  0  0  0  0  0
    1.6069   15.2095   -2.9851 C   0  0  0  0  0  0  0  0  0  0  0  0
    0.9236   13.4094   -1.1252 N   0  0  0  0  0  0  0  0  0  0  0  0
    2.4650   15.1080   -1.9591 N   0  0  0  0  0  0  0  0  0  0  0  0
   -0.1820   14.8686   -4.3391 N   0  0  0  0  0  0  0  0  0  0  0  0
    1.6979   16.0358   -4.0688 N   0  0  0  0  0  0  0  0  0  0  0  0
   -0.7852   12.9463   -2.2214 H   0  0  0  0  0  0  0  0  0  0  0  0
    2.6737   14.0271   -0.2106 H   0  0  0  0  0  0  0  0  0  0  0  0
    0.4338   16.3253   -5.7792 H   0  0  0  0  0  0  0  0  0  0  0  0
    2.4363   16.7002   -4.2576 H   0  0  0  0  0  0  0  0  0  0  0  0
  1  4  1  0  0  0  0
  1  6  2  0  0  0  0
  2  6  1  0  0  0  0
  2  7  2  0  0  0  0
  3  8  2  0  0  0  0
  3  9  1  0  0  0  0
  4  5  2  0  0  0  0
  4  8  1  0  0  0  0
  5  7  1  0  0  0  0
  5  9  1  0  0  0  0
  1 10  1  0  0  0  0
  2 11  1  0  0  0  0
  3 12  1  0  0  0  0
  9 13  1  0  0  0  0
M  END
> <FRED Chemgauss4 score>
-8.289730

$$$$
MOL0231_9
  -OEChem-06022418023D

 35 37  0     1  0  0  0  0  0999 V2000
    1.9106   15.4789   -2.9635 C   0  0  0  0  0  0  0  0  0  0  0  0
    2.5147   13.9090   -1.4177 C   0  0  0  0  0  0  0  0  0  0  0  0
    0.6179   15.0283   -2.8985 C   0  0  0  0  0  0  0  0  0  0  0  0
    0.3408   13.9764   -2.0433 C   0  0  0  0  0  0  0  0  0  0  0  0
   -0.6031   15.4684   -3.6264 C   0  0  0  0  0  0  0  0  0  0  0  0
   -6.3628   14.4621   -1.8676 C   0  0  0  0  0  0  0  0  0  0  0  0
   -5.7113   15.6818   -1.2236 C   0  0  0  0  0  0  0  0  0  0  0  0
   -5.3687   13.6611   -2.7027 C   0  0  0  0  0  0  0  0  0  0  0  0
   -4.4744   15.2987   -0.4128 C   0  0  0  0  0  0  0  0  0  0  0  0
   -4.1319   13.2771   -1.8923 C   0  0  0  0  0  0  0  0  0  0  0  0
   -3.4554   14.4805   -1.2194 C   0  0  0  0  0  0  0  0  0  0  0  0
   -1.6964   14.5618   -2.9980 C   0  0  2  0  0  0  0  0  0  0  0  0
   -2.7096   15.3504   -2.2352 C   0  0  0  0  0  0  0  0  0  0  0  0
    2.8938   14.9305   -2.2213 N   0  0  0  0  0  0  0  0  0  0  0  0
    1.2764   13.3871   -1.2803 N   0  0  0  0  0  0  0  0  0  0  0  0
   -1.0159   13.6392   -2.0974 N   0  0  0  0  0  0  0  0  0  0  0  0
    2.2058   16.2943   -3.6127 H   0  0  0  0  0  0  0  0  0  0  0  0
    3.2951   13.4585   -0.8159 H   0  0  0  0  0  0  0  0  0  0  0  0
   -0.7964   16.5338   -3.4687 H   0  0  0  0  0  0  0  0  0  0  0  0
   -0.4971   15.2607   -4.6962 H   0  0  0  0  0  0  0  0  0  0  0  0
   -6.7920   13.8192   -1.0888 H   0  0  0  0  0  0  0  0  0  0  0  0
   -7.1953   14.7879   -2.5055 H   0  0  0  0  0  0  0  0  0  0  0  0
   -5.4339   16.4038   -2.0000 H   0  0  0  0  0  0  0  0  0  0  0  0
   -6.4363   16.1804   -0.5684 H   0  0  0  0  0  0  0  0  0  0  0  0
   -5.8552   12.7522   -3.0778 H   0  0  0  0  0  0  0  0  0  0  0  0
   -5.0681   14.2468   -3.5788 H   0  0  0  0  0  0  0  0  0  0  0  0
   -3.9962   16.2176   -0.0319 H   0  0  0  0  0  0  0  0  0  0  0  0
   -4.7890   14.7294    0.4777 H   0  0  0  0  0  0  0  0  0  0  0  0
   -4.4173   12.5344   -1.1288 H   0  0  0  0  0  0  0  0  0  0  0  0
   -3.4117   12.7682   -2.5560 H   0  0  0  0  0  0  0  0  0  0  0  0
   -2.7018   14.0854   -0.5055 H   0  0  0  0  0  0  0  0  0  0  0  0
   -2.2061   13.9970   -3.7875 H   0  0  0  0  0  0  0  0  0  0  0  0
   -3.4320   15.7883   -2.9288 H   0  0  0  0  0  0  0  0  0  0  0  0
   -2.2153   16.1704   -1.7081 H   0  0  0  0  0  0  0  0  0  0  0  0
   -1.4514   12.9160   -1.5465 H   0  0  0  0  0  0  0  0  0  0  0  0
  1  3  1  0  0  0  0
  1 14  2  0  0  0  0
  2 14  1  0  0  0  0
  2 15  2  0  0  0  0
  3  4  2  0  0  0  0
  3  5  1  0  0  0  0
  4 15  1  0  0  0  0
  4 16  1  0  0  0  0
  5 12  1  0  0  0  0
  6  7  1  0  0  0  0
  6  8  1  0  0  0  0
  7  9  1  0  0  0  0
  8 10  1  0  0  0  0
  9 11  1  0  0  0  0
 10 11  1  0  0  0  0
 11 13  1  0  0  0  0
 12 13  1  0  0  0  0
 12 16  1  0  0  0  0
  1 17  1  0  0  0  0
  2 18  1  0  0  0  0
  5 19  1  0  0  0  0
  5 20  1  0  0  0  0
  6 21  1  0  0  0  0
  6 22  1  0  0  0  0
  7 23  1  0  0  0  0
  7 24  1  0  0  0  0
  8 25  1  0  0  0  0
  8 26  1  0  0  0  0
  9 27  1  0  0  0  0
  9 28  1  0  0  0  0
 10 29  1  0  0  0  0
 10 30  1  0  0  0  0
 11 31  1  0  0  0  0
 12 32  1  0  0  0  0
 13 33  1  0  0  0  0
 13 34  1  0  0  0  0
 16 35  1  0  0  0  0
M  END
> <FRED Chemgauss4 score>
-8.246149

$$$$
MOL0069_5
  -OEChem-06022418023D

 25 27  0     1  0  0  0  0  0999 V2000
   -4.4938   13.5570   -3.8648 C   0  0  0  0  0  0  0  0  0  0  0  0
   -3.8873   14.4080   -2.9475 C   0  0  0  0  0  0  0  0  0  0  0  0
   -5.6771   12.9397   -3.4927 C   0  0  0  0  0  0  0  0  0  0  0  0
   -5.6586   13.9483   -1.4285 C   0  0  0  0  0  0  0  0  0  0  0  0
   -1.3431   14.7861   -0.9076 C   0  0  0  0  0  0  0  0  0  0  0  0
   -0.2219   14.5667    1.0708 C   0  0  0  0  0  0  0  0  0  0  0  0
   -4.4743   14.6127   -1.7038 C   0  0  0  0  0  0  0  0  0  0  0  0
   -2.4772   15.1285   -0.2156 C   0  0  0  0  0  0  0  0  0  0  0  0
   -2.3968   15.1851    1.1671 C   0  0  0  0  0  0  0  0  0  0  0  0
   -4.6177   15.6016    0.6611 C   0  0  0  0  0  0  0  0  0  0  0  0
   -3.8409   15.5309   -0.6864 C   0  0  2  0  0  0  0  0  0  0  0  0
   -6.2773   13.1140   -2.2939 N   0  0  0  0  0  0  0  0  0  0  0  0
   -0.1868   14.4897   -0.2802 N   0  0  0  0  0  0  0  0  0  0  0  0
   -1.2730   14.9058    1.8481 N   0  0  0  0  0  0  0  0  0  0  0  0
   -3.6228   15.5756    1.7211 N   0  0  0  0  0  0  0  0  0  0  0  0
   -4.0543   13.3827   -4.8402 H   0  0  0  0  0  0  0  0  0  0  0  0
   -2.9584   14.9069   -3.2102 H   0  0  0  0  0  0  0  0  0  0  0  0
   -6.1892   12.2665   -4.1724 H   0  0  0  0  0  0  0  0  0  0  0  0
   -6.1629   14.0689   -0.4748 H   0  0  0  0  0  0  0  0  0  0  0  0
   -1.3176   14.7409   -1.9897 H   0  0  0  0  0  0  0  0  0  0  0  0
    0.7005   14.3312    1.5887 H   0  0  0  0  0  0  0  0  0  0  0  0
   -5.2170   16.5173    0.7159 H   0  0  0  0  0  0  0  0  0  0  0  0
   -5.2989   14.7509    0.7875 H   0  0  0  0  0  0  0  0  0  0  0  0
   -3.7739   16.5532   -1.1259 H   0  0  0  0  0  0  0  0  0  0  0  0
   -3.8090   15.6318    2.7102 H   0  0  0  0  0  0  0  0  0  0  0  0
  1  2  2  0  0  0  0
  1  3  1  0  0  0  0
  2  7  1  0  0  0  0
  3 12  2  0  0  0  0
  4  7  2  0  0  0  0
  4 12  1  0  0  0  0
  5  8  1  0  0  0  0
  5 13  2  0  0  0  0
  6 13  1  0  0  0  0
  6 14  2  0  0  0  0
  7 11  1  0  0  0  0
  8  9  2  0  0  0  0
  8 11  1  0  0  0  0
  9 14  1  0  0  0  0
  9 15  1  0  0  0  0
 10 11  1  0  0  0  0
 10 15  1  0  0  0  0
  1 16  1  0  0  0  0
  2 17  1  0  0  0  0
  3 18  1  0  0  0  0
  4 19  1  0  0  0  0
  5 20  1  0  0  0  0
  6 21  1  0  0  0  0
 10 22  1  0  0  0  0
 10 23  1  0  0  0  0
 11 24  1  0  0  0  0
 15 25  1  0  0  0  0
M  END
> <FRED Chemgauss4 score>
-8.211550

$$$$
MOL0095_14
  -OEChem-06022418023D

 26 27  0     1  0  0  0  0  0999 V2000
    0.3113   13.8021   -2.3988 C   0  0  0  0  0  0  0  0  0  0  0  0
    2.4151   13.9685   -1.5221 C   0  0  0  0  0  0  0  0  0  0  0  0
    0.5242   14.9579   -3.1053 C   0  0  0  0  0  0  0  0  0  0  0  0
    1.7565   15.5788   -2.9683 C   0  0  0  0  0  0  0  0  0  0  0  0
    0.4794   17.0058   -4.2571 C   0  0  0  0  0  0  0  0  0  0  0  0
   -0.3323   15.6954   -4.0820 C   0  0  2  0  0  0  0  0  0  0  0  0
   -1.7536   15.9481   -3.6047 C   0  0  0  0  0  0  0  0  0  0  0  0
   -2.6836   16.2792   -4.7683 C   0  0  0  0  0  0  0  0  0  0  0  0
   -2.2533   17.5497   -5.4876 C   0  0  0  0  0  0  0  0  0  0  0  0
    1.2511   13.2802   -1.5841 N   0  0  0  0  0  0  0  0  0  0  0  0
    2.7340   15.1052   -2.1779 N   0  0  0  0  0  0  0  0  0  0  0  0
    1.8180   16.7357   -3.7590 N   0  0  0  0  0  0  0  0  0  0  0  0
   -2.2617   18.6270   -4.5612 O   0  0  0  0  0  0  0  0  0  0  0  0
   -0.6171   13.2477   -2.4629 H   0  0  0  0  0  0  0  0  0  0  0  0
    3.1790   13.5589   -0.8718 H   0  0  0  0  0  0  0  0  0  0  0  0
    0.5068   17.3140   -5.3076 H   0  0  0  0  0  0  0  0  0  0  0  0
    0.0417   17.8281   -3.6780 H   0  0  0  0  0  0  0  0  0  0  0  0
   -0.3435   15.1417   -5.0290 H   0  0  0  0  0  0  0  0  0  0  0  0
   -2.1189   15.0594   -3.0772 H   0  0  0  0  0  0  0  0  0  0  0  0
   -1.7491   16.7743   -2.8843 H   0  0  0  0  0  0  0  0  0  0  0  0
   -2.7084   15.4476   -5.4835 H   0  0  0  0  0  0  0  0  0  0  0  0
   -3.7139   16.3962   -4.4096 H   0  0  0  0  0  0  0  0  0  0  0  0
   -1.2414   17.4461   -5.8919 H   0  0  0  0  0  0  0  0  0  0  0  0
   -2.9413   17.7882   -6.3050 H   0  0  0  0  0  0  0  0  0  0  0  0
    2.5922   17.3816   -3.7591 H   0  0  0  0  0  0  0  0  0  0  0  0
   -1.9838   19.4190   -5.0494 H   0  0  0  0  0  0  0  0  0  0  0  0
  1  3  1  0  0  0  0
  1 10  2  0  0  0  0
  2 10  1  0  0  0  0
  2 11  2  0  0  0  0
  3  4  2  0  0  0  0
  3  6  1  0  0  0  0
  4 11  1  0  0  0  0
  4 12  1  0  0  0  0
  5  6  1  0  0  0  0
  5 12  1  0  0  0  0
  6  7  1  0  0  0  0
  7  8  1  0  0  0  0
  8  9  1  0  0  0  0
  9 13  1  0  0  0  0
  1 14  1  0  0  0  0
  2 15  1  0  0  0  0
  5 16  1  0  0  0  0
  5 17  1  0  0  0  0
  6 18  1  0  0  0  0
  7 19  1  0  0  0  0
  7 20  1  0  0  0  0
  8 21  1  0  0  0  0
  8 22  1  0  0  0  0
  9 23  1  0  0  0  0
  9 24  1  0  0  0  0
 12 25  1  0  0  0  0
 13 26  1  0  0  0  0
M  END
> <FRED Chemgauss4 score>
-8.193618

$$$$
MOL0068_6
  -OEChem-06022418023D

 29 31  0     1  0  0  0  0  0999 V2000
    0.2589   11.2152   -4.1314 C   0  0  0  0  0  0  0  0  0  0  0  0
    0.8840   12.4370   -4.3804 C   0  0  0  0  0  0  0  0  0  0  0  0
   -1.0316   11.1869   -3.6028 C   0  0  0  0  0  0  0  0  0  0  0  0
    0.2187   13.6306   -4.1006 C   0  0  0  0  0  0  0  0  0  0  0  0
   -1.6970   12.3805   -3.3230 C   0  0  0  0  0  0  0  0  0  0  0  0
   -3.1244   15.1106    1.3553 C   0  0  0  0  0  0  0  0  0  0  0  0
   -0.8974   14.7863    0.9638 C   0  0  0  0  0  0  0  0  0  0  0  0
   -3.3589   15.0354    0.0075 C   0  0  0  0  0  0  0  0  0  0  0  0
   -1.0718   13.6024   -3.5719 C   0  0  0  0  0  0  0  0  0  0  0  0
   -2.2777   14.8138   -0.8343 C   0  0  0  0  0  0  0  0  0  0  0  0
   -4.6247   15.1160   -0.7675 C   0  0  0  0  0  0  0  0  0  0  0  0
   -4.0766   15.2556   -2.2023 C   0  0  0  0  0  0  0  0  0  0  0  0
   -1.7885   14.8868   -3.2703 C   0  0  0  0  0  0  0  0  0  0  0  0
   -1.8835   14.9911    1.8683 N   0  0  0  0  0  0  0  0  0  0  0  0
   -1.0189   14.6871   -0.3781 N   0  0  0  0  0  0  0  0  0  0  0  0
   -2.7087   14.7452   -2.1725 N   0  0  1  0  0  0  0  0  0  0  0  0
    0.7766   10.2859   -4.3506 H   0  0  0  0  0  0  0  0  0  0  0  0
    1.8884   12.4592   -4.7930 H   0  0  0  0  0  0  0  0  0  0  0  0
   -1.5190   10.2359   -3.4099 H   0  0  0  0  0  0  0  0  0  0  0  0
    0.7136   14.5779   -4.2976 H   0  0  0  0  0  0  0  0  0  0  0  0
   -2.7022   12.3488   -2.9111 H   0  0  0  0  0  0  0  0  0  0  0  0
   -3.9205   15.2697    2.0723 H   0  0  0  0  0  0  0  0  0  0  0  0
    0.1058   14.6935    1.3627 H   0  0  0  0  0  0  0  0  0  0  0  0
   -5.2367   14.2161   -0.6597 H   0  0  0  0  0  0  0  0  0  0  0  0
   -5.1953   16.0029   -0.4737 H   0  0  0  0  0  0  0  0  0  0  0  0
   -4.6812   14.6513   -2.8915 H   0  0  0  0  0  0  0  0  0  0  0  0
   -4.1141   16.2952   -2.5446 H   0  0  0  0  0  0  0  0  0  0  0  0
   -1.0741   15.6760   -3.0119 H   0  0  0  0  0  0  0  0  0  0  0  0
   -2.3559   15.2338   -4.1402 H   0  0  0  0  0  0  0  0  0  0  0  0
  1  2  1  0  0  0  0
  1  3  2  0  0  0  0
  2  4  2  0  0  0  0
  3  5  1  0  0  0  0
  4  9  1  0  0  0  0
  5  9  2  0  0  0  0
  6  8  1  0  0  0  0
  6 14  2  0  0  0  0
  7 14  1  0  0  0  0
  7 15  2  0  0  0  0
  8 10  2  0  0  0  0
  8 11  1  0  0  0  0
  9 13  1  0  0  0  0
 10 15  1  0  0  0  0
 10 16  1  0  0  0  0
 11 12  1  0  0  0  0
 12 16  1  0  0  0  0
 13 16  1  0  0  0  0
  1 17  1  0  0  0  0
  2 18  1  0  0  0  0
  3 19  1  0  0  0  0
  4 20  1  0  0  0  0
  5 21  1  0  0  0  0
  6 22  1  0  0  0  0
  7 23  1  0  0  0  0
 11 24  1  0  0  0  0
 11 25  1  0  0  0  0
 12 26  1  0  0  0  0
 12 27  1  0  0  0  0
 13 28  1  0  0  0  0
 13 29  1  0  0  0  0
M  END
> <FRED Chemgauss4 score>
-8.186805

$$$$
MOL0153_2
  -OEChem-06022418023D

 29 31  0     1  0  0  0  0  0999 V2000
    1.6861   15.0804   -3.3823 C   0  0  0  0  0  0  0  0  0  0  0  0
    2.4133   13.8602   -1.5931 C   0  0  0  0  0  0  0  0  0  0  0  0
    0.5173   14.3648   -3.3802 C   0  0  0  0  0  0  0  0  0  0  0  0
    0.3644   13.3767   -2.4237 C   0  0  0  0  0  0  0  0  0  0  0  0
   -0.6721   14.4422   -4.2713 C   0  0  0  0  0  0  0  0  0  0  0  0
   -4.7233   13.8814   -1.5318 C   0  0  0  0  0  0  0  0  0  0  0  0
   -3.9528   15.1734   -1.2546 C   0  0  0  0  0  0  0  0  0  0  0  0
   -3.8079   13.0185   -2.3949 C   0  0  0  0  0  0  0  0  0  0  0  0
   -2.6037   15.0178   -1.9486 C   0  0  0  0  0  0  0  0  0  0  0  0
   -2.8804   14.0231   -3.0715 C   0  0  0  0  0  0  0  0  0  0  0  0
   -1.6201   13.3897   -3.6344 C   0  0  2  0  0  0  0  0  0  0  0  0
    2.6654   14.8469   -2.4852 N   0  0  0  0  0  0  0  0  0  0  0  0
    1.3034   13.0953   -1.5052 N   0  0  0  0  0  0  0  0  0  0  0  0
   -0.8759   12.7438   -2.5601 N   0  0  0  0  0  0  0  0  0  0  0  0
    1.8809   15.8656   -4.1027 H   0  0  0  0  0  0  0  0  0  0  0  0
    3.1922   13.6614   -0.8666 H   0  0  0  0  0  0  0  0  0  0  0  0
   -1.1004   15.4491   -4.2743 H   0  0  0  0  0  0  0  0  0  0  0  0
   -0.3973   14.1484   -5.2896 H   0  0  0  0  0  0  0  0  0  0  0  0
   -4.9995   13.3656   -0.6064 H   0  0  0  0  0  0  0  0  0  0  0  0
   -5.6511   14.1106   -2.0689 H   0  0  0  0  0  0  0  0  0  0  0  0
   -4.5001   16.0268   -1.6713 H   0  0  0  0  0  0  0  0  0  0  0  0
   -3.8314   15.3539   -0.1818 H   0  0  0  0  0  0  0  0  0  0  0  0
   -3.2397   12.3303   -1.7569 H   0  0  0  0  0  0  0  0  0  0  0  0
   -4.3707   12.4187   -3.1169 H   0  0  0  0  0  0  0  0  0  0  0  0
   -2.2221   15.9731   -2.3217 H   0  0  0  0  0  0  0  0  0  0  0  0
   -1.8680   14.6147   -1.2416 H   0  0  0  0  0  0  0  0  0  0  0  0
   -3.4234   14.5307   -3.8803 H   0  0  0  0  0  0  0  0  0  0  0  0
   -1.9025   12.6441   -4.3869 H   0  0  0  0  0  0  0  0  0  0  0  0
   -1.2143   12.0063   -1.9620 H   0  0  0  0  0  0  0  0  0  0  0  0
  1  3  1  0  0  0  0
  1 12  2  0  0  0  0
  2 12  1  0  0  0  0
  2 13  2  0  0  0  0
  3  4  2  0  0  0  0
  3  5  1  0  0  0  0
  4 13  1  0  0  0  0
  4 14  1  0  0  0  0
  5 11  1  0  0  0  0
  6  7  1  0  0  0  0
  6  8  1  0  0  0  0
  7  9  1  0  0  0  0
  8 10  1  0  0  0  0
  9 10  1  0  0  0  0
 10 11  1  0  0  0  0
 11 14  1  0  0  0  0
  1 15  1  0  0  0  0
  2 16  1  0  0  0  0
  5 17  1  0  0  0  0
  5 18  1  0  0  0  0
  6 19  1  0  0  0  0
  6 20  1  0  0  0  0
  7 21  1  0  0  0  0
  7 22  1  0  0  0  0
  8 23  1  0  0  0  0
  8 24  1  0  0  0  0
  9 25  1  0  0  0  0
  9 26  1  0  0  0  0
 10 27  1  0  0  0  0
 11 28  1  0  0  0  0
 14 29  1  0  0  0  0
M  END
> <FRED Chemgauss4 score>
-8.169857

$$$$
MOL0176_6
  -OEChem-06022418023D

 29 31  0     1  0  0  0  0  0999 V2000
    1.1267   17.2207   -4.5360 C   0  0  0  0  0  0  0  0  0  0  0  0
    1.4807   16.1117   -3.7676 C   0  0  0  0  0  0  0  0  0  0  0  0
   -0.1917   17.3818   -4.9622 C   0  0  0  0  0  0  0  0  0  0  0  0
    0.5164   15.1637   -3.4255 C   0  0  0  0  0  0  0  0  0  0  0  0
   -1.1560   16.4338   -4.6200 C   0  0  0  0  0  0  0  0  0  0  0  0
   -3.4628   15.0746    1.2147 C   0  0  0  0  0  0  0  0  0  0  0  0
   -1.2064   14.9244    0.8299 C   0  0  0  0  0  0  0  0  0  0  0  0
   -3.6890   15.0448   -0.1348 C   0  0  0  0  0  0  0  0  0  0  0  0
   -0.8020   15.3248   -3.8517 C   0  0  0  0  0  0  0  0  0  0  0  0
   -2.5780   14.9375   -0.9413 C   0  0  0  0  0  0  0  0  0  0  0  0
   -4.9405   15.1727   -0.9247 C   0  0  0  0  0  0  0  0  0  0  0  0
   -4.4533   14.8428   -2.3517 C   0  0  0  0  0  0  0  0  0  0  0  0
   -2.2160   15.0050    1.7327 N   0  0  0  0  0  0  0  0  0  0  0  0
   -1.3089   14.9004   -0.5151 N   0  0  0  0  0  0  0  0  0  0  0  0
   -2.9588   15.0062   -2.3185 N   0  0  2  0  0  0  0  0  0  0  0  0
   -2.8033   13.8467   -4.6155 O   0  0  0  0  0  0  0  0  0  0  0  0
   -1.3454   13.0397   -2.7258 O   0  0  0  0  0  0  0  0  0  0  0  0
   -2.0236   14.1209   -3.4204 S   0  0  0  0  0  0  0  0  0  0  0  0
    1.8773   17.9589   -4.8034 H   0  0  0  0  0  0  0  0  0  0  0  0
    2.5073   15.9853   -3.4365 H   0  0  0  0  0  0  0  0  0  0  0  0
   -0.4668   18.2449   -5.5610 H   0  0  0  0  0  0  0  0  0  0  0  0
    0.8031   14.3030   -2.8272 H   0  0  0  0  0  0  0  0  0  0  0  0
   -2.1797   16.5686   -4.9585 H   0  0  0  0  0  0  0  0  0  0  0  0
   -4.2695   15.1441    1.9343 H   0  0  0  0  0  0  0  0  0  0  0  0
   -0.2041   14.8689    1.2379 H   0  0  0  0  0  0  0  0  0  0  0  0
   -5.6769   14.4355   -0.5878 H   0  0  0  0  0  0  0  0  0  0  0  0
   -5.3730   16.1759   -0.8738 H   0  0  0  0  0  0  0  0  0  0  0  0
   -4.7260   13.8251   -2.6458 H   0  0  0  0  0  0  0  0  0  0  0  0
   -4.8875   15.5513   -3.0678 H   0  0  0  0  0  0  0  0  0  0  0  0
  1  2  1  0  0  0  0
  1  3  2  0  0  0  0
  2  4  2  0  0  0  0
  3  5  1  0  0  0  0
  4  9  1  0  0  0  0
  5  9  2  0  0  0  0
  6  8  1  0  0  0  0
  6 13  2  0  0  0  0
  7 13  1  0  0  0  0
  7 14  2  0  0  0  0
  8 10  2  0  0  0  0
  8 11  1  0  0  0  0
  9 18  1  0  0  0  0
 10 14  1  0  0  0  0
 10 15  1  0  0  0  0
 11 12  1  0  0  0  0
 12 15  1  0  0  0  0
 15 18  1  0  0  0  0
 16 18  2  0  0  0  0
 17 18  2  0  0  0  0
  1 19  1  0  0  0  0
  2 20  1  0  0  0  0
  3 21  1  0  0  0  0
  4 22  1  0  0  0  0
  5 23  1  0  0  0  0
  6 24  1  0  0  0  0
  7 25  1  0  0  0  0
 11 26  1  0  0  0  0
 11 27  1  0  0  0  0
 12 28  1  0  0  0  0
 12 29  1  0  0  0  0
M  END
> <FRED Chemgauss4 score>
-8.166153

$$$$
MOL0138_1
  -OEChem-06022418023D

 23 25  0     1  0  0  0  0  0999 V2000
    0.5502   13.7906   -2.2875 C   0  0  0  0  0  0  0  0  0  0  0  0
    2.6187   14.1497   -1.3852 C   0  0  0  0  0  0  0  0  0  0  0  0
    0.7679   14.8160   -3.1715 C   0  0  0  0  0  0  0  0  0  0  0  0
    1.9839   15.4789   -3.1022 C   0  0  0  0  0  0  0  0  0  0  0  0
   -2.5690   15.6739   -4.8979 C   0  0  0  0  0  0  0  0  0  0  0  0
   -2.5052   14.5716   -3.8778 C   0  0  0  0  0  0  0  0  0  0  0  0
    0.7287   16.6398   -4.6531 C   0  0  0  0  0  0  0  0  0  0  0  0
   -0.0666   15.3597   -4.2848 C   0  0  2  0  0  0  0  0  0  0  0  0
   -1.4736   15.6606   -3.8731 C   0  0  0  0  0  0  0  0  0  0  0  0
    1.4695   13.4344   -1.3672 N   0  0  0  0  0  0  0  0  0  0  0  0
    2.9410   15.1671   -2.2128 N   0  0  0  0  0  0  0  0  0  0  0  0
    2.0533   16.4877   -4.0743 N   0  0  0  0  0  0  0  0  0  0  0  0
   -0.3654   13.2117   -2.2865 H   0  0  0  0  0  0  0  0  0  0  0  0
    3.3666   13.8724   -0.6519 H   0  0  0  0  0  0  0  0  0  0  0  0
   -2.3280   15.4250   -5.9240 H   0  0  0  0  0  0  0  0  0  0  0  0
   -3.3484   16.4179   -4.7880 H   0  0  0  0  0  0  0  0  0  0  0  0
   -3.2416   14.5764   -3.0836 H   0  0  0  0  0  0  0  0  0  0  0  0
   -2.2216   13.5842   -4.2207 H   0  0  0  0  0  0  0  0  0  0  0  0
    0.7908   16.7632   -5.7397 H   0  0  0  0  0  0  0  0  0  0  0  0
    0.2578   17.5420   -4.2438 H   0  0  0  0  0  0  0  0  0  0  0  0
   -0.0522   14.6554   -5.1253 H   0  0  0  0  0  0  0  0  0  0  0  0
   -1.5098   16.3934   -3.0797 H   0  0  0  0  0  0  0  0  0  0  0  0
    2.8157   17.1420   -4.1589 H   0  0  0  0  0  0  0  0  0  0  0  0
  1  3  1  0  0  0  0
  1 10  2  0  0  0  0
  2 10  1  0  0  0  0
  2 11  2  0  0  0  0
  3  4  2  0  0  0  0
  3  8  1  0  0  0  0
  4 11  1  0  0  0  0
  4 12  1  0  0  0  0
  5  6  1  0  0  0  0
  5  9  1  0  0  0  0
  6  9  1  0  0  0  0
  7  8  1  0  0  0  0
  7 12  1  0  0  0  0
  8  9  1  0  0  0  0
  1 13  1  0  0  0  0
  2 14  1  0  0  0  0
  5 15  1  0  0  0  0
  5 16  1  0  0  0  0
  6 17  1  0  0  0  0
  6 18  1  0  0  0  0
  7 19  1  0  0  0  0
  7 20  1  0  0  0  0
  8 21  1  0  0  0  0
  9 22  1  0  0  0  0
 12 23  1  0  0  0  0
M  END
> <FRED Chemgauss4 score>
-8.163884

$$$$
MOL0214_7
  -OEChem-06022418023D

 31 33  0     1  0  0  0  0  0999 V2000
    0.3429   13.5292   -2.1888 C   0  0  0  0  0  0  0  0  0  0  0  0
    2.4684   14.0011   -1.4933 C   0  0  0  0  0  0  0  0  0  0  0  0
    0.4188   14.5606   -3.0894 C   0  0  0  0  0  0  0  0  0  0  0  0
    1.6023   15.2831   -3.1433 C   0  0  0  0  0  0  0  0  0  0  0  0
   -4.8970   14.8616   -3.4564 C   0  0  0  0  0  0  0  0  0  0  0  0
   -4.5555   14.5666   -4.9185 C   0  0  0  0  0  0  0  0  0  0  0  0
   -3.8338   14.1465   -2.6245 C   0  0  0  0  0  0  0  0  0  0  0  0
   -3.3043   13.6905   -4.8889 C   0  0  0  0  0  0  0  0  0  0  0  0
    0.1368   16.3778   -4.5454 C   0  0  0  0  0  0  0  0  0  0  0  0
   -0.5400   15.0473   -4.1249 C   0  0  2  0  0  0  0  0  0  0  0  0
   -2.6318   14.0103   -3.5560 C   0  0  0  0  0  0  0  0  0  0  0  0
    1.3649   13.2277   -1.3618 N   0  0  0  0  0  0  0  0  0  0  0  0
    2.6565   15.0269   -2.3514 N   0  0  0  0  0  0  0  0  0  0  0  0
    1.5263   16.2818   -4.1279 N   0  0  0  0  0  0  0  0  0  0  0  0
   -1.8912   15.2674   -3.6359 N   0  0  0  0  0  0  0  0  0  0  0  0
   -0.5362   12.9025   -2.0996 H   0  0  0  0  0  0  0  0  0  0  0  0
    3.2968   13.7680   -0.8348 H   0  0  0  0  0  0  0  0  0  0  0  0
   -4.9089   15.9359   -3.2482 H   0  0  0  0  0  0  0  0  0  0  0  0
   -5.8924   14.4683   -3.2210 H   0  0  0  0  0  0  0  0  0  0  0  0
   -5.3850   14.0307   -5.3933 H   0  0  0  0  0  0  0  0  0  0  0  0
   -4.3855   15.4836   -5.4906 H   0  0  0  0  0  0  0  0  0  0  0  0
   -3.5838   14.7615   -1.7448 H   0  0  0  0  0  0  0  0  0  0  0  0
   -4.1882   13.1753   -2.2504 H   0  0  0  0  0  0  0  0  0  0  0  0
   -3.5461   12.6227   -4.9917 H   0  0  0  0  0  0  0  0  0  0  0  0
   -2.6511   13.9581   -5.7354 H   0  0  0  0  0  0  0  0  0  0  0  0
    0.0531   16.5438   -5.6248 H   0  0  0  0  0  0  0  0  0  0  0  0
   -0.3203   17.2392   -4.0409 H   0  0  0  0  0  0  0  0  0  0  0  0
   -0.5447   14.3482   -4.9697 H   0  0  0  0  0  0  0  0  0  0  0  0
   -1.9885   13.2189   -3.2455 H   0  0  0  0  0  0  0  0  0  0  0  0
    2.2410   16.9760   -4.2827 H   0  0  0  0  0  0  0  0  0  0  0  0
   -1.8506   15.6901   -2.7079 H   0  0  0  0  0  0  0  0  0  0  0  0
  1  3  1  0  0  0  0
  1 12  2  0  0  0  0
  2 12  1  0  0  0  0
  2 13  2  0  0  0  0
  3  4  2  0  0  0  0
  3 10  1  0  0  0  0
  4 13  1  0  0  0  0
  4 14  1  0  0  0  0
  5  6  1  0  0  0  0
  5  7  1  0  0  0  0
  6  8  1  0  0  0  0
  7 11  1  0  0  0  0
  8 11  1  0  0  0  0
  9 10  1  0  0  0  0
  9 14  1  0  0  0  0
 10 15  1  0  0  0  0
 11 15  1  0  0  0  0
  1 16  1  0  0  0  0
  2 17  1  0  0  0  0
  5 18  1  0  0  0  0
  5 19  1  0  0  0  0
  6 20  1  0  0  0  0
  6 21  1  0  0  0  0
  7 22  1  0  0  0  0
  7 23  1  0  0  0  0
  8 24  1  0  0  0  0
  8 25  1  0  0  0  0
  9 26  1  0  0  0  0
  9 27  1  0  0  0  0
 10 28  1  0  0  0  0
 11 29  1  0  0  0  0
 14 30  1  0  0  0  0
 15 31  1  0  0  0  0
M  END
> <FRED Chemgauss4 score>
-8.151552

$$$$
MOL0228_6
  -OEChem-06022418023D

 29 31  0     1  0  0  0  0  0999 V2000
   -3.9836   11.6469   -6.3395 C   0  0  0  0  0  0  0  0  0  0  0  0
    0.4317   13.7939   -1.8674 C   0  0  0  0  0  0  0  0  0  0  0  0
   -3.6512   12.8934   -5.8636 C   0  0  0  0  0  0  0  0  0  0  0  0
    2.5302   14.1846   -1.0513 C   0  0  0  0  0  0  0  0  0  0  0  0
   -2.6301   11.3005   -4.7337 C   0  0  0  0  0  0  0  0  0  0  0  0
    0.6103   14.7996   -2.7824 C   0  0  0  0  0  0  0  0  0  0  0  0
    1.8175   15.4817   -2.7624 C   0  0  0  0  0  0  0  0  0  0  0  0
    0.6763   16.2880   -4.5997 C   0  0  0  0  0  0  0  0  0  0  0  0
   -0.3014   15.3712   -3.8184 C   0  0  1  0  0  0  0  0  0  0  0  0
   -0.9676   14.3345   -4.7091 C   0  0  0  0  0  0  0  0  0  0  0  0
   -2.1392   13.6616   -3.9978 C   0  0  0  0  0  0  0  0  0  0  0  0
    1.3909   13.4569   -0.9811 N   0  0  0  0  0  0  0  0  0  0  0  0
   -3.3449   10.6597   -5.6317 N   0  0  0  0  0  0  0  0  0  0  0  0
    2.8080   15.1972   -1.9007 N   0  0  0  0  0  0  0  0  0  0  0  0
   -2.7839   12.6553   -4.8348 N   0  0  0  0  0  0  0  0  0  0  0  0
    1.8373   16.4809   -3.7467 N   0  0  0  0  0  0  0  0  0  0  0  0
   -4.6503   11.4103   -7.1558 H   0  0  0  0  0  0  0  0  0  0  0  0
   -0.4875   13.2242   -1.8061 H   0  0  0  0  0  0  0  0  0  0  0  0
   -3.9461   13.8911   -6.1572 H   0  0  0  0  0  0  0  0  0  0  0  0
    3.3082   13.9247   -0.3433 H   0  0  0  0  0  0  0  0  0  0  0  0
   -1.9897   10.8426   -3.9922 H   0  0  0  0  0  0  0  0  0  0  0  0
    0.9968   15.8224   -5.5397 H   0  0  0  0  0  0  0  0  0  0  0  0
    0.2061   17.2463   -4.8445 H   0  0  0  0  0  0  0  0  0  0  0  0
   -1.0607   15.9858   -3.3192 H   0  0  0  0  0  0  0  0  0  0  0  0
   -1.3133   14.8189   -5.6299 H   0  0  0  0  0  0  0  0  0  0  0  0
   -0.2256   13.5840   -5.0066 H   0  0  0  0  0  0  0  0  0  0  0  0
   -2.9017   14.3966   -3.7137 H   0  0  0  0  0  0  0  0  0  0  0  0
   -1.8089   13.1667   -3.0768 H   0  0  0  0  0  0  0  0  0  0  0  0
    2.6413   17.0507   -3.9596 H   0  0  0  0  0  0  0  0  0  0  0  0
  1  3  2  0  0  0  0
  1 13  1  0  0  0  0
  2  6  1  0  0  0  0
  2 12  2  0  0  0  0
  3 15  1  0  0  0  0
  4 12  1  0  0  0  0
  4 14  2  0  0  0  0
  5 13  2  0  0  0  0
  5 15  1  0  0  0  0
  6  7  2  0  0  0  0
  6  9  1  0  0  0  0
  7 14  1  0  0  0  0
  7 16  1  0  0  0  0
  8  9  1  0  0  0  0
  8 16  1  0  0  0  0
  9 10  1  0  0  0  0
 10 11  1  0  0  0  0
 11 15  1  0  0  0  0
  1 17  1  0  0  0  0
  2 18  1  0  0  0  0
  3 19  1  0  0  0  0
  4 20  1  0  0  0  0
  5 21  1  0  0  0  0
  8 22  1  0  0  0  0
  8 23  1  0  0  0  0
  9 24  1  0  0  0  0
 10 25  1  0  0  0  0
 10 26  1  0  0  0  0
 11 27  1  0  0  0  0
 11 28  1  0  0  0  0
 16 29  1  0  0  0  0
M  END
> <FRED Chemgauss4 score>
-8.143418

$$$$
MOL0062_4
  -OEChem-06022418023D

 29 31  0     1  0  0  0  0  0999 V2000
   -2.6051   15.1043    1.4876 C   0  0  0  0  0  0  0  0  0  0  0  0
   -0.3755   14.8666    1.0507 C   0  0  0  0  0  0  0  0  0  0  0  0
   -2.8692   14.9568    0.1514 C   0  0  0  0  0  0  0  0  0  0  0  0
   -1.8000   14.7477   -0.7088 C   0  0  0  0  0  0  0  0  0  0  0  0
   -4.1565   14.9429   -0.5918 C   0  0  0  0  0  0  0  0  0  0  0  0
    0.0337   11.9895   -4.7978 C   0  0  0  0  0  0  0  0  0  0  0  0
    0.4144   13.4674   -4.5722 C   0  0  0  0  0  0  0  0  0  0  0  0
   -1.3084   12.3031   -4.1048 C   0  0  0  0  0  0  0  0  0  0  0  0
   -3.6517   15.0423   -2.0458 C   0  0  0  0  0  0  0  0  0  0  0  0
   -0.5785   13.4640   -3.3807 C   0  0  0  0  0  0  0  0  0  0  0  0
   -1.3759   14.7322   -3.1580 C   0  0  0  0  0  0  0  0  0  0  0  0
   -1.3475   15.0663    1.9717 N   0  0  0  0  0  0  0  0  0  0  0  0
   -0.5256   14.7008   -0.2817 N   0  0  0  0  0  0  0  0  0  0  0  0
   -2.2606   14.5981   -2.0304 N   0  0  1  0  0  0  0  0  0  0  0  0
   -3.3897   15.2587    2.2182 H   0  0  0  0  0  0  0  0  0  0  0  0
    0.6406   14.8390    1.4260 H   0  0  0  0  0  0  0  0  0  0  0  0
   -4.7218   14.0213   -0.4277 H   0  0  0  0  0  0  0  0  0  0  0  0
   -4.7612   15.8147   -0.3223 H   0  0  0  0  0  0  0  0  0  0  0  0
   -0.0320   11.6682   -5.8401 H   0  0  0  0  0  0  0  0  0  0  0  0
    0.6621   11.2828   -4.2436 H   0  0  0  0  0  0  0  0  0  0  0  0
    1.4613   13.6518   -4.3175 H   0  0  0  0  0  0  0  0  0  0  0  0
    0.1284   14.1245   -5.4020 H   0  0  0  0  0  0  0  0  0  0  0  0
   -2.0951   12.6215   -4.7989 H   0  0  0  0  0  0  0  0  0  0  0  0
   -1.7027   11.5146   -3.4586 H   0  0  0  0  0  0  0  0  0  0  0  0
   -4.2436   14.3797   -2.6908 H   0  0  0  0  0  0  0  0  0  0  0  0
   -3.7473   16.0624   -2.4328 H   0  0  0  0  0  0  0  0  0  0  0  0
   -0.1058   13.1407   -2.4451 H   0  0  0  0  0  0  0  0  0  0  0  0
   -0.6815   15.5650   -2.9725 H   0  0  0  0  0  0  0  0  0  0  0  0
   -1.9712   14.9447   -4.0582 H   0  0  0  0  0  0  0  0  0  0  0  0
  1  3  1  0  0  0  0
  1 12  2  0  0  0  0
  2 12  1  0  0  0  0
  2 13  2  0  0  0  0
  3  4  2  0  0  0  0
  3  5  1  0  0  0  0
  4 13  1  0  0  0  0
  4 14  1  0  0  0  0
  5  9  1  0  0  0  0
  6  7  1  0  0  0  0
  6  8  1  0  0  0  0
  7 10  1  0  0  0  0
  8 10  1  0  0  0  0
  9 14  1  0  0  0  0
 10 11  1  0  0  0  0
 11 14  1  0  0  0  0
  1 15  1  0  0  0  0
  2 16  1  0  0  0  0
  5 17  1  0  0  0  0
  5 18  1  0  0  0  0
  6 19  1  0  0  0  0
  6 20  1  0  0  0  0
  7 21  1  0  0  0  0
  7 22  1  0  0  0  0
  8 23  1  0  0  0  0
  8 24  1  0  0  0  0
  9 25  1  0  0  0  0
  9 26  1  0  0  0  0
 10 27  1  0  0  0  0
 11 28  1  0  0  0  0
 11 29  1  0  0  0  0
M  END
> <FRED Chemgauss4 score>
-8.138996

$$$$
MOL0052_4
  -OEChem-06022418023D

 29 31  0     1  0  0  0  0  0999 V2000
   -2.7438   15.2596    1.1805 C   0  0  0  0  0  0  0  0  0  0  0  0
   -0.5220   14.9068    0.7839 C   0  0  0  0  0  0  0  0  0  0  0  0
   -2.9873   15.1524   -0.1635 C   0  0  0  0  0  0  0  0  0  0  0  0
   -1.9096   14.9256   -1.0086 C   0  0  0  0  0  0  0  0  0  0  0  0
   -4.2504   15.2728   -0.9377 C   0  0  0  0  0  0  0  0  0  0  0  0
    0.6700   13.9728   -4.2933 C   0  0  0  0  0  0  0  0  0  0  0  0
    0.0475   12.5997   -4.0253 C   0  0  0  0  0  0  0  0  0  0  0  0
   -0.1687   14.9767   -3.5066 C   0  0  0  0  0  0  0  0  0  0  0  0
   -1.1349   12.8476   -3.0922 C   0  0  0  0  0  0  0  0  0  0  0  0
   -3.7985   14.7386   -2.3123 C   0  0  0  0  0  0  0  0  0  0  0  0
   -1.5245   14.2923   -3.3812 C   0  0  0  0  0  0  0  0  0  0  0  0
   -1.5017   15.1356    1.6898 N   0  0  0  0  0  0  0  0  0  0  0  0
   -0.6500   14.7938   -0.5562 N   0  0  0  0  0  0  0  0  0  0  0  0
   -2.3440   14.8657   -2.3459 N   0  0  2  0  0  0  0  0  0  0  0  0
   -3.5332   15.4492    1.8975 H   0  0  0  0  0  0  0  0  0  0  0  0
    0.4814   14.8049    1.1801 H   0  0  0  0  0  0  0  0  0  0  0  0
   -5.0556   14.6636   -0.5179 H   0  0  0  0  0  0  0  0  0  0  0  0
   -4.5589   16.3211   -1.0025 H   0  0  0  0  0  0  0  0  0  0  0  0
    1.7220   14.0097   -3.9929 H   0  0  0  0  0  0  0  0  0  0  0  0
    0.6260   14.1963   -5.3655 H   0  0  0  0  0  0  0  0  0  0  0  0
   -0.2964   12.1588   -4.9680 H   0  0  0  0  0  0  0  0  0  0  0  0
    0.7676   11.9053   -3.5811 H   0  0  0  0  0  0  0  0  0  0  0  0
    0.2878   15.1360   -2.5213 H   0  0  0  0  0  0  0  0  0  0  0  0
   -0.2319   15.9455   -4.0116 H   0  0  0  0  0  0  0  0  0  0  0  0
   -1.9553   12.1463   -3.2729 H   0  0  0  0  0  0  0  0  0  0  0  0
   -0.8081   12.7281   -2.0513 H   0  0  0  0  0  0  0  0  0  0  0  0
   -4.0791   13.6817   -2.4107 H   0  0  0  0  0  0  0  0  0  0  0  0
   -4.2728   15.2905   -3.1307 H   0  0  0  0  0  0  0  0  0  0  0  0
   -2.0638   14.3521   -4.3459 H   0  0  0  0  0  0  0  0  0  0  0  0
  1  3  1  0  0  0  0
  1 12  2  0  0  0  0
  2 12  1  0  0  0  0
  2 13  2  0  0  0  0
  3  4  2  0  0  0  0
  3  5  1  0  0  0  0
  4 13  1  0  0  0  0
  4 14  1  0  0  0  0
  5 10  1  0  0  0  0
  6  7  1  0  0  0  0
  6  8  1  0  0  0  0
  7  9  1  0  0  0  0
  8 11  1  0  0  0  0
  9 11  1  0  0  0  0
 10 14  1  0  0  0  0
 11 14  1  0  0  0  0
  1 15  1  0  0  0  0
  2 16  1  0  0  0  0
  5 17  1  0  0  0  0
  5 18  1  0  0  0  0
  6 19  1  0  0  0  0
  6 20  1  0  0  0  0
  7 21  1  0  0  0  0
  7 22  1  0  0  0  0
  8 23  1  0  0  0  0
  8 24  1  0  0  0  0
  9 25  1  0  0  0  0
  9 26  1  0  0  0  0
 10 27  1  0  0  0  0
 10 28  1  0  0  0  0
 11 29  1  0  0  0  0
M  END
> <FRED Chemgauss4 score>
-8.138233

$$$$
MOL0124_1
  -OEChem-06022418023D

 26 28  0     1  0  0  0  0  0999 V2000
   -4.1424   14.5559   -3.1819 C   0  0  0  0  0  0  0  0  0  0  0  0
   -3.1111   14.4344   -2.2507 C   0  0  0  0  0  0  0  0  0  0  0  0
   -3.8476   14.8294   -4.5176 C   0  0  0  0  0  0  0  0  0  0  0  0
   -1.7848   14.5867   -2.6551 C   0  0  0  0  0  0  0  0  0  0  0  0
   -2.5214   14.9816   -4.9220 C   0  0  0  0  0  0  0  0  0  0  0  0
    1.0312   13.0058   -3.1703 C   0  0  0  0  0  0  0  0  0  0  0  0
    3.0397   13.4535   -2.1778 C   0  0  0  0  0  0  0  0  0  0  0  0
   -1.4899   14.8603   -3.9908 C   0  0  0  0  0  0  0  0  0  0  0  0
    0.9611   14.3090   -3.5936 C   0  0  0  0  0  0  0  0  0  0  0  0
    2.0148   15.1498   -3.2707 C   0  0  0  0  0  0  0  0  0  0  0  0
    0.4610   16.4919   -4.3414 C   0  0  0  0  0  0  0  0  0  0  0  0
   -0.0547   15.0254   -4.4291 C   0  0  2  0  0  0  0  0  0  0  0  0
    2.0711   12.5465   -2.4449 N   0  0  0  0  0  0  0  0  0  0  0  0
    3.0793   14.7497   -2.5555 N   0  0  0  0  0  0  0  0  0  0  0  0
    1.8080   16.4314   -3.7972 N   0  0  0  0  0  0  0  0  0  0  0  0
   -5.1750   14.4359   -2.8671 H   0  0  0  0  0  0  0  0  0  0  0  0
   -3.3404   14.2204   -1.2109 H   0  0  0  0  0  0  0  0  0  0  0  0
   -4.6503   14.9229   -5.2430 H   0  0  0  0  0  0  0  0  0  0  0  0
   -0.9877   14.4906   -1.9226 H   0  0  0  0  0  0  0  0  0  0  0  0
   -2.3011   15.1948   -5.9647 H   0  0  0  0  0  0  0  0  0  0  0  0
    0.2597   12.2810   -3.4002 H   0  0  0  0  0  0  0  0  0  0  0  0
    3.8820   13.0984   -1.5956 H   0  0  0  0  0  0  0  0  0  0  0  0
    0.4647   16.9619   -5.3312 H   0  0  0  0  0  0  0  0  0  0  0  0
   -0.1643   17.1083   -3.6835 H   0  0  0  0  0  0  0  0  0  0  0  0
    0.0376   14.6659   -5.4803 H   0  0  0  0  0  0  0  0  0  0  0  0
    2.4201   17.2170   -3.6414 H   0  0  0  0  0  0  0  0  0  0  0  0
  1  2  1  0  0  0  0
  1  3  2  0  0  0  0
  2  4  2  0  0  0  0
  3  5  1  0  0  0  0
  4  8  1  0  0  0  0
  5  8  2  0  0  0  0
  6  9  1  0  0  0  0
  6 13  2  0  0  0  0
  7 13  1  0  0  0  0
  7 14  2  0  0  0  0
  8 12  1  0  0  0  0
  9 10  2  0  0  0  0
  9 12  1  0  0  0  0
 10 14  1  0  0  0  0
 10 15  1  0  0  0  0
 11 12  1  0  0  0  0
 11 15  1  0  0  0  0
  1 16  1  0  0  0  0
  2 17  1  0  0  0  0
  3 18  1  0  0  0  0
  4 19  1  0  0  0  0
  5 20  1  0  0  0  0
  6 21  1  0  0  0  0
  7 22  1  0  0  0  0
 11 23  1  0  0  0  0
 11 24  1  0  0  0  0
 12 25  1  0  0  0  0
 15 26  1  0  0  0  0
M  END
> <FRED Chemgauss4 score>
-8.137903

$$$$
MOL0100_13
  -OEChem-06022418023D

 26 27  0     1  0  0  0  0  0999 V2000
    0.3001   13.9125   -2.5371 C   0  0  0  0  0  0  0  0  0  0  0  0
    2.4378   14.0846   -1.7482 C   0  0  0  0  0  0  0  0  0  0  0  0
    0.5196   15.0003   -3.3427 C   0  0  0  0  0  0  0  0  0  0  0  0
    1.7729   15.5919   -3.2986 C   0  0  0  0  0  0  0  0  0  0  0  0
    0.4907   16.9484   -4.6568 C   0  0  0  0  0  0  0  0  0  0  0  0
   -0.3508   15.6825   -4.3469 C   0  0  2  0  0  0  0  0  0  0  0  0
   -1.7457   16.0178   -3.8433 C   0  0  0  0  0  0  0  0  0  0  0  0
   -2.6736   14.8088   -3.9205 C   0  0  0  0  0  0  0  0  0  0  0  0
   -2.8523   14.3282   -5.3537 C   0  0  0  0  0  0  0  0  0  0  0  0
    1.2535   13.4297   -1.7144 N   0  0  0  0  0  0  0  0  0  0  0  0
    2.7645   15.1540   -2.5054 N   0  0  0  0  0  0  0  0  0  0  0  0
    1.8382   16.6785   -4.1832 N   0  0  0  0  0  0  0  0  0  0  0  0
   -3.3982   15.3870   -6.1282 O   0  0  0  0  0  0  0  0  0  0  0  0
   -0.6452   13.3836   -2.5243 H   0  0  0  0  0  0  0  0  0  0  0  0
    3.2128   13.7058   -1.0925 H   0  0  0  0  0  0  0  0  0  0  0  0
    0.4891   17.1687   -5.7295 H   0  0  0  0  0  0  0  0  0  0  0  0
    0.0975   17.8285   -4.1335 H   0  0  0  0  0  0  0  0  0  0  0  0
   -0.4127   15.0544   -5.2442 H   0  0  0  0  0  0  0  0  0  0  0  0
   -1.6788   16.3702   -2.8075 H   0  0  0  0  0  0  0  0  0  0  0  0
   -2.1551   16.8408   -4.4404 H   0  0  0  0  0  0  0  0  0  0  0  0
   -2.2798   13.9878   -3.3085 H   0  0  0  0  0  0  0  0  0  0  0  0
   -3.6546   15.0552   -3.4952 H   0  0  0  0  0  0  0  0  0  0  0  0
   -1.8919   14.0367   -5.7905 H   0  0  0  0  0  0  0  0  0  0  0  0
   -3.5375   13.4757   -5.3975 H   0  0  0  0  0  0  0  0  0  0  0  0
    2.6298   17.2980   -4.2625 H   0  0  0  0  0  0  0  0  0  0  0  0
   -3.4994   15.0494   -7.0330 H   0  0  0  0  0  0  0  0  0  0  0  0
  1  3  1  0  0  0  0
  1 10  2  0  0  0  0
  2 10  1  0  0  0  0
  2 11  2  0  0  0  0
  3  4  2  0  0  0  0
  3  6  1  0  0  0  0
  4 11  1  0  0  0  0
  4 12  1  0  0  0  0
  5  6  1  0  0  0  0
  5 12  1  0  0  0  0
  6  7  1  0  0  0  0
  7  8  1  0  0  0  0
  8  9  1  0  0  0  0
  9 13  1  0  0  0  0
  1 14  1  0  0  0  0
  2 15  1  0  0  0  0
  5 16  1  0  0  0  0
  5 17  1  0  0  0  0
  6 18  1  0  0  0  0
  7 19  1  0  0  0  0
  7 20  1  0  0  0  0
  8 21  1  0  0  0  0
  8 22  1  0  0  0  0
  9 23  1  0  0  0  0
  9 24  1  0  0  0  0
 12 25  1  0  0  0  0
 13 26  1  0  0  0  0
M  END
> <FRED Chemgauss4 score>
-8.113114

$$$$
MOL0038_1
  -OEChem-06022418023D

 13 14  0     0  0  0  0  0  0999 V2000
   -0.0100   13.8648   -1.9994 C   0  0  0  0  0  0  0  0  0  0  0  0
   -0.3522   15.3002   -4.1626 C   0  0  0  0  0  0  0  0  0  0  0  0
    2.1684   14.1429   -1.2658 C   0  0  0  0  0  0  0  0  0  0  0  0
    0.2878   14.7311   -3.0460 C   0  0  0  0  0  0  0  0  0  0  0  0
    1.5730   15.2423   -3.0932 C   0  0  0  0  0  0  0  0  0  0  0  0
    0.9538   13.5687   -1.0948 N   0  0  0  0  0  0  0  0  0  0  0  0
    0.4527   16.1058   -4.8642 N   0  0  0  0  0  0  0  0  0  0  0  0
    2.5737   14.9930   -2.2338 N   0  0  0  0  0  0  0  0  0  0  0  0
    1.6162   16.0508   -4.1899 N   0  0  0  0  0  0  0  0  0  0  0  0
   -0.9773   13.4015   -1.8521 H   0  0  0  0  0  0  0  0  0  0  0  0
   -1.3710   15.1649   -4.4973 H   0  0  0  0  0  0  0  0  0  0  0  0
    2.9161   13.8850   -0.5234 H   0  0  0  0  0  0  0  0  0  0  0  0
    2.3994   16.5908   -4.5363 H   0  0  0  0  0  0  0  0  0  0  0  0
  1  4  1  0  0  0  0
  1  6  2  0  0  0  0
  2  4  1  0  0  0  0
  2  7  2  0  0  0  0
  3  6  1  0  0  0  0
  3  8  2  0  0  0  0
  4  5  2  0  0  0  0
  5  8  1  0  0  0  0
  5  9  1  0  0  0  0
  7  9  1  0  0  0  0
  1 10  1  0  0  0  0
  2 11  1  0  0  0  0
  3 12  1  0  0  0  0
  9 13  1  0  0  0  0
M  END
> <FRED Chemgauss4 score>
-8.100289

$$$$
MOL0179_3
  -OEChem-06022418023D

 20 21  0     1  0  0  0  0  0999 V2000
    0.3655   13.6340   -2.2673 C   0  0  0  0  0  0  0  0  0  0  0  0
    2.3398   14.1206   -1.2258 C   0  0  0  0  0  0  0  0  0  0  0  0
    0.6319   14.6029   -3.1993 C   0  0  0  0  0  0  0  0  0  0  0  0
    1.8142   15.3113   -3.0771 C   0  0  0  0  0  0  0  0  0  0  0  0
   -0.1417   15.0454   -4.3910 C   0  0  0  0  0  0  0  0  0  0  0  0
    0.7264   16.2193   -4.9200 C   0  0  1  0  0  0  0  0  0  0  0  0
    0.0027   17.5575   -4.8198 C   0  0  0  0  0  0  0  0  0  0  0  0
    1.2140   13.3692   -1.2532 N   0  0  0  0  0  0  0  0  0  0  0  0
    2.7003   15.0930   -2.0913 N   0  0  0  0  0  0  0  0  0  0  0  0
    1.9339   16.2546   -4.1036 N   0  0  0  0  0  0  0  0  0  0  0  0
   -1.1774   17.4922   -5.5999 O   0  0  0  0  0  0  0  0  0  0  0  0
   -0.5359   13.0342   -2.2999 H   0  0  0  0  0  0  0  0  0  0  0  0
    3.0309   13.9179   -0.4162 H   0  0  0  0  0  0  0  0  0  0  0  0
   -0.1885   14.2373   -5.1284 H   0  0  0  0  0  0  0  0  0  0  0  0
   -1.1527   15.3592   -4.1137 H   0  0  0  0  0  0  0  0  0  0  0  0
    0.9945   16.0380   -5.9675 H   0  0  0  0  0  0  0  0  0  0  0  0
    0.6410   18.3560   -5.1992 H   0  0  0  0  0  0  0  0  0  0  0  0
   -0.2628   17.7614   -3.7821 H   0  0  0  0  0  0  0  0  0  0  0  0
    2.7022   16.8990   -4.2062 H   0  0  0  0  0  0  0  0  0  0  0  0
   -1.6200   18.3543   -5.5203 H   0  0  0  0  0  0  0  0  0  0  0  0
  1  3  1  0  0  0  0
  1  8  2  0  0  0  0
  2  8  1  0  0  0  0
  2  9  2  0  0  0  0
  3  4  2  0  0  0  0
  3  5  1  0  0  0  0
  4  9  1  0  0  0  0
  4 10  1  0  0  0  0
  5  6  1  0  0  0  0
  6  7  1  0  0  0  0
  6 10  1  0  0  0  0
  7 11  1  0  0  0  0
  1 12  1  0  0  0  0
  2 13  1  0  0  0  0
  5 14  1  0  0  0  0
  5 15  1  0  0  0  0
  6 16  1  0  0  0  0
  7 17  1  0  0  0  0
  7 18  1  0  0  0  0
 10 19  1  0  0  0  0
 11 20  1  0  0  0  0
M  END
> <FRED Chemgauss4 score>
-8.039819

$$$$
MOL0215_1
  -OEChem-06022418023D

 23 25  0     1  0  0  0  0  0999 V2000
    0.2923   13.4346   -2.4003 C   0  0  0  0  0  0  0  0  0  0  0  0
    2.2859   13.9457   -1.4069 C   0  0  0  0  0  0  0  0  0  0  0  0
    0.4090   14.5510   -3.1880 C   0  0  0  0  0  0  0  0  0  0  0  0
    1.5385   15.3388   -3.0253 C   0  0  0  0  0  0  0  0  0  0  0  0
   -2.9661   15.1711   -4.9418 C   0  0  0  0  0  0  0  0  0  0  0  0
   -2.7973   13.9984   -4.0165 C   0  0  0  0  0  0  0  0  0  0  0  0
    0.1910   16.4807   -4.5114 C   0  0  0  0  0  0  0  0  0  0  0  0
   -0.4583   15.0913   -4.2776 C   0  0  2  0  0  0  0  0  0  0  0  0
   -1.8993   15.1931   -3.8873 C   0  0  0  0  0  0  0  0  0  0  0  0
    1.2268   13.1061   -1.4849 N   0  0  0  0  0  0  0  0  0  0  0  0
    2.5061   15.0612   -2.1357 N   0  0  0  0  0  0  0  0  0  0  0  0
    1.5117   16.4297   -3.9065 N   0  0  0  0  0  0  0  0  0  0  0  0
   -0.5501   12.7578   -2.4766 H   0  0  0  0  0  0  0  0  0  0  0  0
    3.0445   13.6920   -0.6761 H   0  0  0  0  0  0  0  0  0  0  0  0
   -2.6752   15.0417   -5.9769 H   0  0  0  0  0  0  0  0  0  0  0  0
   -3.8289   15.8092   -4.7946 H   0  0  0  0  0  0  0  0  0  0  0  0
   -3.5466   13.8501   -3.2486 H   0  0  0  0  0  0  0  0  0  0  0  0
   -2.3936   13.0834   -4.4320 H   0  0  0  0  0  0  0  0  0  0  0  0
    0.2604   16.7046   -5.5813 H   0  0  0  0  0  0  0  0  0  0  0  0
   -0.3898   17.2843   -4.0419 H   0  0  0  0  0  0  0  0  0  0  0  0
   -0.3437   14.4687   -5.1732 H   0  0  0  0  0  0  0  0  0  0  0  0
   -2.0380   15.8450   -3.0366 H   0  0  0  0  0  0  0  0  0  0  0  0
    2.1952   17.1708   -3.9119 H   0  0  0  0  0  0  0  0  0  0  0  0
  1  3  1  0  0  0  0
  1 10  2  0  0  0  0
  2 10  1  0  0  0  0
  2 11  2  0  0  0  0
  3  4  2  0  0  0  0
  3  8  1  0  0  0  0
  4 11  1  0  0  0  0
  4 12  1  0  0  0  0
  5  6  1  0  0  0  0
  5  9  1  0  0  0  0
  6  9  1  0  0  0  0
  7  8  1  0  0  0  0
  7 12  1  0  0  0  0
  8  9  1  0  0  0  0
  1 13  1  0  0  0  0
  2 14  1  0  0  0  0
  5 15  1  0  0  0  0
  5 16  1  0  0  0  0
  6 17  1  0  0  0  0
  6 18  1  0  0  0  0
  7 19  1  0  0  0  0
  7 20  1  0  0  0  0
  8 21  1  0  0  0  0
  9 22  1  0  0  0  0
 12 23  1  0  0  0  0
M  END
> <FRED Chemgauss4 score>
-8.029819

$$$$
MOL0210_4
  -OEChem-06022418023D

 31 33  0     1  0  0  0  0  0999 V2000
    0.5150   13.9062   -1.9456 C   0  0  0  0  0  0  0  0  0  0  0  0
    2.7141   13.9884   -1.3278 C   0  0  0  0  0  0  0  0  0  0  0  0
    0.6874   15.0534   -2.6769 C   0  0  0  0  0  0  0  0  0  0  0  0
    1.9462   15.6375   -2.6720 C   0  0  0  0  0  0  0  0  0  0  0  0
   -4.5497   14.5746   -3.1337 C   0  0  0  0  0  0  0  0  0  0  0  0
   -4.2570   13.2504   -3.8447 C   0  0  0  0  0  0  0  0  0  0  0  0
   -3.3588   15.4830   -3.4276 C   0  0  0  0  0  0  0  0  0  0  0  0
   -2.9043   13.4292   -4.5290 C   0  0  0  0  0  0  0  0  0  0  0  0
    0.7036   16.8416   -4.1949 C   0  0  0  0  0  0  0  0  0  0  0  0
   -0.2719   15.8822   -3.4648 C   0  0  1  0  0  0  0  0  0  0  0  0
   -2.2199   14.5070   -3.6969 C   0  0  0  0  0  0  0  0  0  0  0  0
    1.5276   13.3401   -1.2574 N   0  0  0  0  0  0  0  0  0  0  0  0
    2.9914   15.1256   -2.0015 N   0  0  0  0  0  0  0  0  0  0  0  0
    1.9489   16.8103   -3.4446 N   0  0  0  0  0  0  0  0  0  0  0  0
   -1.1023   15.1247   -4.3879 N   0  0  0  0  0  0  0  0  0  0  0  0
   -0.4409   13.4009   -1.8789 H   0  0  0  0  0  0  0  0  0  0  0  0
    3.5353   13.5438   -0.7780 H   0  0  0  0  0  0  0  0  0  0  0  0
   -5.4875   15.0233   -3.4768 H   0  0  0  0  0  0  0  0  0  0  0  0
   -4.6416   14.4034   -2.0548 H   0  0  0  0  0  0  0  0  0  0  0  0
   -4.2095   12.4377   -3.1107 H   0  0  0  0  0  0  0  0  0  0  0  0
   -5.0385   12.9951   -4.5673 H   0  0  0  0  0  0  0  0  0  0  0  0
   -3.5749   16.0933   -4.3140 H   0  0  0  0  0  0  0  0  0  0  0  0
   -3.1444   16.1631   -2.5973 H   0  0  0  0  0  0  0  0  0  0  0  0
   -2.3325   12.4964   -4.5629 H   0  0  0  0  0  0  0  0  0  0  0  0
   -3.0593   13.7652   -5.5623 H   0  0  0  0  0  0  0  0  0  0  0  0
    0.9053   16.5080   -5.2211 H   0  0  0  0  0  0  0  0  0  0  0  0
    0.2951   17.8562   -4.2516 H   0  0  0  0  0  0  0  0  0  0  0  0
   -0.9027   16.4483   -2.7691 H   0  0  0  0  0  0  0  0  0  0  0  0
   -1.8683   14.0798   -2.7536 H   0  0  0  0  0  0  0  0  0  0  0  0
    2.7762   17.3506   -3.6455 H   0  0  0  0  0  0  0  0  0  0  0  0
   -0.5392   14.3975   -4.8297 H   0  0  0  0  0  0  0  0  0  0  0  0
  1  3  1  0  0  0  0
  1 12  2  0  0  0  0
  2 12  1  0  0  0  0
  2 13  2  0  0  0  0
  3  4  2  0  0  0  0
  3 10  1  0  0  0  0
  4 13  1  0  0  0  0
  4 14  1  0  0  0  0
  5  6  1  0  0  0  0
  5  7  1  0  0  0  0
  6  8  1  0  0  0  0
  7 11  1  0  0  0  0
  8 11  1  0  0  0  0
  9 10  1  0  0  0  0
  9 14  1  0  0  0  0
 10 15  1  0  0  0  0
 11 15  1  0  0  0  0
  1 16  1  0  0  0  0
  2 17  1  0  0  0  0
  5 18  1  0  0  0  0
  5 19  1  0  0  0  0
  6 20  1  0  0  0  0
  6 21  1  0  0  0  0
  7 22  1  0  0  0  0
  7 23  1  0  0  0  0
  8 24  1  0  0  0  0
  8 25  1  0  0  0  0
  9 26  1  0  0  0  0
  9 27  1  0  0  0  0
 10 28  1  0  0  0  0
 11 29  1  0  0  0  0
 14 30  1  0  0  0  0
 15 31  1  0  0  0  0
M  END
> <FRED Chemgauss4 score>
-8.015421

$$$$
MOL0205_3
  -OEChem-06022418023D

 25 26  0     1  0  0  0  0  0999 V2000
    0.6280   13.4532   -2.3542 C   0  0  0  0  0  0  0  0  0  0  0  0
    2.6216   13.7643   -1.2813 C   0  0  0  0  0  0  0  0  0  0  0  0
    0.8374   14.6103   -3.0595 C   0  0  0  0  0  0  0  0  0  0  0  0
    2.0098   15.3097   -2.8161 C   0  0  0  0  0  0  0  0  0  0  0  0
    0.7795   16.6353   -4.2506 C   0  0  0  0  0  0  0  0  0  0  0  0
    0.0369   15.2787   -4.1290 C   0  0  2  0  0  0  0  0  0  0  0  0
   -3.6907   14.3256   -3.7092 C   0  0  0  0  0  0  0  0  0  0  0  0
   -1.4372   15.4476   -3.7967 C   0  0  0  0  0  0  0  0  0  0  0  0
   -2.2220   14.1657   -4.0677 C   0  0  0  0  0  0  0  0  0  0  0  0
    1.5138   13.0030   -1.4421 N   0  0  0  0  0  0  0  0  0  0  0  0
    2.9326   14.9098   -1.9256 N   0  0  0  0  0  0  0  0  0  0  0  0
    2.0770   16.4573   -3.6199 N   0  0  0  0  0  0  0  0  0  0  0  0
   -0.2538   12.8403   -2.4969 H   0  0  0  0  0  0  0  0  0  0  0  0
    3.3419   13.4128   -0.5521 H   0  0  0  0  0  0  0  0  0  0  0  0
    0.8906   16.9302   -5.2994 H   0  0  0  0  0  0  0  0  0  0  0  0
    0.2374   17.4361   -3.7330 H   0  0  0  0  0  0  0  0  0  0  0  0
    0.1525   14.7124   -5.0615 H   0  0  0  0  0  0  0  0  0  0  0  0
   -3.8100   14.5977   -2.6556 H   0  0  0  0  0  0  0  0  0  0  0  0
   -4.2272   13.3870   -3.8807 H   0  0  0  0  0  0  0  0  0  0  0  0
   -4.1615   15.1023   -4.3203 H   0  0  0  0  0  0  0  0  0  0  0  0
   -1.5380   15.7306   -2.7425 H   0  0  0  0  0  0  0  0  0  0  0  0
   -1.8485   16.2697   -4.3939 H   0  0  0  0  0  0  0  0  0  0  0  0
   -2.1378   13.8938   -5.1265 H   0  0  0  0  0  0  0  0  0  0  0  0
   -1.7976   13.3390   -3.4860 H   0  0  0  0  0  0  0  0  0  0  0  0
    2.8062   17.1508   -3.5578 H   0  0  0  0  0  0  0  0  0  0  0  0
  1  3  1  0  0  0  0
  1 10  2  0  0  0  0
  2 10  1  0  0  0  0
  2 11  2  0  0  0  0
  3  4  2  0  0  0  0
  3  6  1  0  0  0  0
  4 11  1  0  0  0  0
  4 12  1  0  0  0  0
  5  6  1  0  0  0  0
  5 12  1  0  0  0  0
  6  8  1  0  0  0  0
  7  9  1  0  0  0  0
  8  9  1  0  0  0  0
  1 13  1  0  0  0  0
  2 14  1  0  0  0  0
  5 15  1  0  0  0  0
  5 16  1  0  0  0  0
  6 17  1  0  0  0  0
  7 18  1  0  0  0  0
  7 19  1  0  0  0  0
  7 20  1  0  0  0  0
  8 21  1  0  0  0  0
  8 22  1  0  0  0  0
  9 23  1  0  0  0  0
  9 24  1  0  0  0  0
 12 25  1  0  0  0  0
M  END
> <FRED Chemgauss4 score>
-7.988757

$$$$
MOL0088_4
  -OEChem-06022418023D

 34 36  0     0  0  0  0  0  0999 V2000
   -2.6230   10.4348   -4.7345 C   0  0  0  0  0  0  0  0  0  0  0  0
   -1.2286   10.4148   -4.7609 C   0  0  0  0  0  0  0  0  0  0  0  0
   -3.3024   11.6524   -4.6934 C   0  0  0  0  0  0  0  0  0  0  0  0
   -0.5135   11.6123   -4.7461 C   0  0  0  0  0  0  0  0  0  0  0  0
   -2.5873   12.8499   -4.6786 C   0  0  0  0  0  0  0  0  0  0  0  0
   -0.0994   14.7536    0.9211 C   0  0  0  0  0  0  0  0  0  0  0  0
   -2.3902   15.0580   -0.3833 C   0  0  0  0  0  0  0  0  0  0  0  0
   -1.1928   12.8299   -4.7049 C   0  0  0  0  0  0  0  0  0  0  0  0
   -2.3351   15.0873    1.0008 C   0  0  0  0  0  0  0  0  0  0  0  0
   -1.2207   14.8582   -1.0680 C   0  0  0  0  0  0  0  0  0  0  0  0
   -3.7886   15.2159   -0.8611 C   0  0  0  0  0  0  0  0  0  0  0  0
   -4.5137   15.6096    0.4441 C   0  0  0  0  0  0  0  0  0  0  0  0
   -0.4199   14.1258   -4.6886 C   0  0  0  0  0  0  0  0  0  0  0  0
   -0.0887   14.6039   -3.2770 C   0  0  0  0  0  0  0  0  0  0  0  0
   -1.1937   14.9360    1.6921 N   0  0  0  0  0  0  0  0  0  0  0  0
   -0.0419   14.7048   -0.4312 N   0  0  0  0  0  0  0  0  0  0  0  0
   -3.6151   15.2858    1.5393 N   0  0  0  0  0  0  0  0  0  0  0  0
   -1.2566   14.8079   -2.4790 N   0  0  0  0  0  0  0  0  0  0  0  0
   -3.1797    9.5023   -4.7475 H   0  0  0  0  0  0  0  0  0  0  0  0
   -0.6994    9.4669   -4.7940 H   0  0  0  0  0  0  0  0  0  0  0  0
   -4.3881   11.6683   -4.6740 H   0  0  0  0  0  0  0  0  0  0  0  0
    0.5729   11.5870   -4.7667 H   0  0  0  0  0  0  0  0  0  0  0  0
   -3.1251   13.7938   -4.6464 H   0  0  0  0  0  0  0  0  0  0  0  0
    0.8418   14.6315    1.4439 H   0  0  0  0  0  0  0  0  0  0  0  0
   -3.8824   16.0011   -1.6168 H   0  0  0  0  0  0  0  0  0  0  0  0
   -4.1690   14.2658   -1.2499 H   0  0  0  0  0  0  0  0  0  0  0  0
   -4.7191   16.6867    0.4502 H   0  0  0  0  0  0  0  0  0  0  0  0
   -5.4690   15.0839    0.5435 H   0  0  0  0  0  0  0  0  0  0  0  0
   -1.0149   14.8924   -5.2009 H   0  0  0  0  0  0  0  0  0  0  0  0
    0.5008   14.0160   -5.2758 H   0  0  0  0  0  0  0  0  0  0  0  0
    0.5184   13.8530   -2.7617 H   0  0  0  0  0  0  0  0  0  0  0  0
    0.4709   15.5450   -3.2901 H   0  0  0  0  0  0  0  0  0  0  0  0
   -3.8069   15.4073    2.5214 H   0  0  0  0  0  0  0  0  0  0  0  0
   -2.1517   14.9244   -2.9132 H   0  0  0  0  0  0  0  0  0  0  0  0
  1  2  1  0  0  0  0
  1  3  2  0  0  0  0
  2  4  2  0  0  0  0
  3  5  1  0  0  0  0
  4  8  1  0  0  0  0
  5  8  2  0  0  0  0
  6 15  1  0  0  0  0
  6 16  2  0  0  0  0
  7  9  1  0  0  0  0
  7 10  2  0  0  0  0
  7 11  1  0  0  0  0
  8 13  1  0  0  0  0
  9 15  2  0  0  0  0
  9 17  1  0  0  0  0
 10 16  1  0  0  0  0
 10 18  1  0  0  0  0
 11 12  1  0  0  0  0
 12 17  1  0  0  0  0
 13 14  1  0  0  0  0
 14 18  1  0  0  0  0
  1 19  1  0  0  0  0
  2 20  1  0  0  0  0
  3 21  1  0  0  0  0
  4 22  1  0  0  0  0
  5 23  1  0  0  0  0
  6 24  1  0  0  0  0
 11 25  1  0  0  0  0
 11 26  1  0  0  0  0
 12 27  1  0  0  0  0
 12 28  1  0  0  0  0
 13 29  1  0  0  0  0
 13 30  1  0  0  0  0
 14 31  1  0  0  0  0
 14 32  1  0  0  0  0
 17 33  1  0  0  0  0
 18 34  1  0  0  0  0
M  END
> <FRED Chemgauss4 score>
-7.981671

$$$$
MOL0084_2
  -OEChem-06022418023D

 28 30  0     0  0  0  0  0  0999 V2000
    0.1339   14.8389    1.1789 C   0  0  0  0  0  0  0  0  0  0  0  0
   -2.2074   15.0133   -0.0579 C   0  0  0  0  0  0  0  0  0  0  0  0
   -2.0846   15.2626    1.2995 C   0  0  0  0  0  0  0  0  0  0  0  0
   -1.0787   14.6634   -0.7507 C   0  0  0  0  0  0  0  0  0  0  0  0
   -3.6221   15.1434   -0.4943 C   0  0  0  0  0  0  0  0  0  0  0  0
   -1.6764   14.6295   -4.4321 C   0  0  0  0  0  0  0  0  0  0  0  0
   -1.0233   13.2797   -4.2144 C   0  0  0  0  0  0  0  0  0  0  0  0
   -4.2715   15.7679    0.7597 C   0  0  0  0  0  0  0  0  0  0  0  0
   -2.1655   14.9960   -3.0355 C   0  0  0  0  0  0  0  0  0  0  0  0
   -0.3276   13.4553   -2.8694 C   0  0  0  0  0  0  0  0  0  0  0  0
   -0.9160   15.1827    1.9564 N   0  0  0  0  0  0  0  0  0  0  0  0
    0.1246   14.5714   -0.1488 N   0  0  0  0  0  0  0  0  0  0  0  0
   -3.3308   15.5916    1.8532 N   0  0  0  0  0  0  0  0  0  0  0  0
   -1.1839   14.3893   -2.1277 N   0  0  0  0  0  0  0  0  0  0  0  0
    1.0954   14.7681    1.6737 H   0  0  0  0  0  0  0  0  0  0  0  0
   -3.7294   15.7998   -1.3627 H   0  0  0  0  0  0  0  0  0  0  0  0
   -4.0484   14.1577   -0.7072 H   0  0  0  0  0  0  0  0  0  0  0  0
   -0.9805   15.3696   -4.8369 H   0  0  0  0  0  0  0  0  0  0  0  0
   -2.5249   14.5368   -5.1202 H   0  0  0  0  0  0  0  0  0  0  0  0
   -1.7495   12.4622   -4.2036 H   0  0  0  0  0  0  0  0  0  0  0  0
   -0.2864   13.0802   -5.0012 H   0  0  0  0  0  0  0  0  0  0  0  0
   -4.4449   16.8388    0.5998 H   0  0  0  0  0  0  0  0  0  0  0  0
   -5.2358   15.3004    0.9840 H   0  0  0  0  0  0  0  0  0  0  0  0
   -2.1686   16.0852   -2.8867 H   0  0  0  0  0  0  0  0  0  0  0  0
   -3.1815   14.6188   -2.8553 H   0  0  0  0  0  0  0  0  0  0  0  0
   -0.2740   12.5038   -2.3211 H   0  0  0  0  0  0  0  0  0  0  0  0
    0.6932   13.8414   -2.9934 H   0  0  0  0  0  0  0  0  0  0  0  0
   -3.4713   15.8763    2.8099 H   0  0  0  0  0  0  0  0  0  0  0  0
  1 11  1  0  0  0  0
  1 12  2  0  0  0  0
  2  3  1  0  0  0  0
  2  4  2  0  0  0  0
  2  5  1  0  0  0  0
  3 11  2  0  0  0  0
  3 13  1  0  0  0  0
  4 12  1  0  0  0  0
  4 14  1  0  0  0  0
  5  8  1  0  0  0  0
  6  7  1  0  0  0  0
  6  9  1  0  0  0  0
  7 10  1  0  0  0  0
  8 13  1  0  0  0  0
  9 14  1  0  0  0  0
 10 14  1  0  0  0  0
  1 15  1  0  0  0  0
  5 16  1  0  0  0  0
  5 17  1  0  0  0  0
  6 18  1  0  0  0  0
  6 19  1  0  0  0  0
  7 20  1  0  0  0  0
  7 21  1  0  0  0  0
  8 22  1  0  0  0  0
  8 23  1  0  0  0  0
  9 24  1  0  0  0  0
  9 25  1  0  0  0  0
 10 26  1  0  0  0  0
 10 27  1  0  0  0  0
 13 28  1  0  0  0  0
M  END
> <FRED Chemgauss4 score>
-7.975799

$$$$
MOL0148_11
  -OEChem-06022418023D

 35 37  0     1  0  0  0  0  0999 V2000
    2.4104   13.8262   -2.4957 C   0  0  0  0  0  0  0  0  0  0  0  0
    1.4178   15.7302   -3.2755 C   0  0  0  0  0  0  0  0  0  0  0  0
    1.2692   13.1270   -2.7887 C   0  0  0  0  0  0  0  0  0  0  0  0
    0.2059   13.8160   -3.3557 C   0  0  0  0  0  0  0  0  0  0  0  0
    0.9449   11.6841   -2.6391 C   0  0  0  0  0  0  0  0  0  0  0  0
   -4.4892   14.9806   -0.4698 C   0  0  0  0  0  0  0  0  0  0  0  0
   -3.0463   14.5490   -0.2270 C   0  0  0  0  0  0  0  0  0  0  0  0
   -5.1937   14.0537   -1.4556 C   0  0  0  0  0  0  0  0  0  0  0  0
   -2.2674   14.4262   -1.5346 C   0  0  0  0  0  0  0  0  0  0  0  0
   -4.4183   13.9299   -2.7652 C   0  0  0  0  0  0  0  0  0  0  0  0
   -0.5785   11.7040   -2.8790 C   0  0  0  0  0  0  0  0  0  0  0  0
   -2.9685   13.4874   -2.5257 C   0  0  0  0  0  0  0  0  0  0  0  0
   -2.1994   13.4227   -3.8439 C   0  0  0  0  0  0  0  0  0  0  0  0
    2.5122   15.1500   -2.7292 N   0  0  0  0  0  0  0  0  0  0  0  0
    0.2517   15.1358   -3.6103 N   0  0  0  0  0  0  0  0  0  0  0  0
   -0.8652   12.9377   -3.6060 N   0  0  1  0  0  0  0  0  0  0  0  0
    3.2833   13.3527   -2.0632 H   0  0  0  0  0  0  0  0  0  0  0  0
    1.4846   16.7951   -3.4637 H   0  0  0  0  0  0  0  0  0  0  0  0
    1.4575   11.0635   -3.3794 H   0  0  0  0  0  0  0  0  0  0  0  0
    1.1816   11.3436   -1.6260 H   0  0  0  0  0  0  0  0  0  0  0  0
   -5.0354   14.9922    0.4802 H   0  0  0  0  0  0  0  0  0  0  0  0
   -4.5023   16.0057   -0.8602 H   0  0  0  0  0  0  0  0  0  0  0  0
   -2.5515   15.2729    0.4305 H   0  0  0  0  0  0  0  0  0  0  0  0
   -3.0364   13.5844    0.2953 H   0  0  0  0  0  0  0  0  0  0  0  0
   -5.3089   13.0604   -1.0047 H   0  0  0  0  0  0  0  0  0  0  0  0
   -6.2025   14.4308   -1.6584 H   0  0  0  0  0  0  0  0  0  0  0  0
   -2.1536   15.4226   -1.9808 H   0  0  0  0  0  0  0  0  0  0  0  0
   -1.2570   14.0576   -1.3206 H   0  0  0  0  0  0  0  0  0  0  0  0
   -4.9259   13.2111   -3.4196 H   0  0  0  0  0  0  0  0  0  0  0  0
   -4.4327   14.8967   -3.2848 H   0  0  0  0  0  0  0  0  0  0  0  0
   -0.8675   10.8408   -3.4913 H   0  0  0  0  0  0  0  0  0  0  0  0
   -1.1300   11.6505   -1.9356 H   0  0  0  0  0  0  0  0  0  0  0  0
   -2.9829   12.4777   -2.0938 H   0  0  0  0  0  0  0  0  0  0  0  0
   -2.7425   12.7458   -4.5011 H   0  0  0  0  0  0  0  0  0  0  0  0
   -2.1741   14.4316   -4.2521 H   0  0  0  0  0  0  0  0  0  0  0  0
  1  3  1  0  0  0  0
  1 14  2  0  0  0  0
  2 14  1  0  0  0  0
  2 15  2  0  0  0  0
  3  4  2  0  0  0  0
  3  5  1  0  0  0  0
  4 15  1  0  0  0  0
  4 16  1  0  0  0  0
  5 11  1  0  0  0  0
  6  7  1  0  0  0  0
  6  8  1  0  0  0  0
  7  9  1  0  0  0  0
  8 10  1  0  0  0  0
  9 12  1  0  0  0  0
 10 12  1  0  0  0  0
 11 16  1  0  0  0  0
 12 13  1  0  0  0  0
 13 16  1  0  0  0  0
  1 17  1  0  0  0  0
  2 18  1  0  0  0  0
  5 19  1  0  0  0  0
  5 20  1  0  0  0  0
  6 21  1  0  0  0  0
  6 22  1  0  0  0  0
  7 23  1  0  0  0  0
  7 24  1  0  0  0  0
  8 25  1  0  0  0  0
  8 26  1  0  0  0  0
  9 27  1  0  0  0  0
  9 28  1  0  0  0  0
 10 29  1  0  0  0  0
 10 30  1  0  0  0  0
 11 31  1  0  0  0  0
 11 32  1  0  0  0  0
 12 33  1  0  0  0  0
 13 34  1  0  0  0  0
 13 35  1  0  0  0  0
M  END
> <FRED Chemgauss4 score>
-7.914286

$$$$
MOL0078_3
  -OEChem-06022418023D

 26 28  0     1  0  0  0  0  0999 V2000
    0.5652   13.7561   -2.1275 C   0  0  0  0  0  0  0  0  0  0  0  0
    2.6796   13.8924   -1.2716 C   0  0  0  0  0  0  0  0  0  0  0  0
    0.8154   14.8629   -2.8973 C   0  0  0  0  0  0  0  0  0  0  0  0
    2.0706   15.4443   -2.8008 C   0  0  0  0  0  0  0  0  0  0  0  0
   -3.8386   14.9433   -3.5800 C   0  0  0  0  0  0  0  0  0  0  0  0
   -3.1238   14.5151   -4.8312 C   0  0  0  0  0  0  0  0  0  0  0  0
    0.8378   16.8448   -4.1601 C   0  0  0  0  0  0  0  0  0  0  0  0
   -0.0205   15.5773   -3.9085 C   0  0  2  0  0  0  0  0  0  0  0  0
   -2.3493   14.7373   -3.5618 C   0  0  0  0  0  0  0  0  0  0  0  0
   -1.4276   15.9092   -3.4376 C   0  0  0  0  0  0  0  0  0  0  0  0
    1.4908   13.2452   -1.2899 N   0  0  0  0  0  0  0  0  0  0  0  0
    3.0354   14.9788   -1.9905 N   0  0  0  0  0  0  0  0  0  0  0  0
    2.1690   16.5531   -3.6542 N   0  0  0  0  0  0  0  0  0  0  0  0
   -0.3833   13.2338   -2.1564 H   0  0  0  0  0  0  0  0  0  0  0  0
    3.4324   13.4910   -0.6035 H   0  0  0  0  0  0  0  0  0  0  0  0
   -4.2230   15.9550   -3.5409 H   0  0  0  0  0  0  0  0  0  0  0  0
   -4.4549   14.2094   -3.0753 H   0  0  0  0  0  0  0  0  0  0  0  0
   -3.2605   13.4939   -5.1655 H   0  0  0  0  0  0  0  0  0  0  0  0
   -3.0297   15.2400   -5.6303 H   0  0  0  0  0  0  0  0  0  0  0  0
    0.8694   17.0930   -5.2262 H   0  0  0  0  0  0  0  0  0  0  0  0
    0.4348   17.7137   -3.6256 H   0  0  0  0  0  0  0  0  0  0  0  0
   -0.0597   14.9732   -4.8234 H   0  0  0  0  0  0  0  0  0  0  0  0
   -1.9691   13.8643   -3.0452 H   0  0  0  0  0  0  0  0  0  0  0  0
   -1.3943   16.2344   -2.3921 H   0  0  0  0  0  0  0  0  0  0  0  0
   -1.8215   16.7437   -4.0275 H   0  0  0  0  0  0  0  0  0  0  0  0
    2.9664   17.1688   -3.6938 H   0  0  0  0  0  0  0  0  0  0  0  0
  1  3  1  0  0  0  0
  1 11  2  0  0  0  0
  2 11  1  0  0  0  0
  2 12  2  0  0  0  0
  3  4  2  0  0  0  0
  3  8  1  0  0  0  0
  4 12  1  0  0  0  0
  4 13  1  0  0  0  0
  5  6  1  0  0  0  0
  5  9  1  0  0  0  0
  6  9  1  0  0  0  0
  7  8  1  0  0  0  0
  7 13  1  0  0  0  0
  8 10  1  0  0  0  0
  9 10  1  0  0  0  0
  1 14  1  0  0  0  0
  2 15  1  0  0  0  0
  5 16  1  0  0  0  0
  5 17  1  0  0  0  0
  6 18  1  0  0  0  0
  6 19  1  0  0  0  0
  7 20  1  0  0  0  0
  7 21  1  0  0  0  0
  8 22  1  0  0  0  0
  9 23  1  0  0  0  0
 10 24  1  0  0  0  0
 10 25  1  0  0  0  0
 13 26  1  0  0  0  0
M  END
> <FRED Chemgauss4 score>
-7.884736

$$$$
MOL0177_1
  -OEChem-06022418023D

 26 28  0     1  0  0  0  0  0999 V2000
    2.1187   15.4546   -2.9489 C   0  0  0  0  0  0  0  0  0  0  0  0
    2.4879   13.9290   -1.2889 C   0  0  0  0  0  0  0  0  0  0  0  0
    0.8289   15.0047   -3.0592 C   0  0  0  0  0  0  0  0  0  0  0  0
    0.4277   13.9769   -2.2242 C   0  0  0  0  0  0  0  0  0  0  0  0
   -0.2726   15.4231   -3.9681 C   0  0  0  0  0  0  0  0  0  0  0  0
   -3.6784   13.9533   -0.9717 C   0  0  0  0  0  0  0  0  0  0  0  0
   -4.6888   14.9874   -1.3834 C   0  0  0  0  0  0  0  0  0  0  0  0
   -3.6941   14.4683   -2.3843 C   0  0  0  0  0  0  0  0  0  0  0  0
   -1.4481   14.5333   -3.4797 C   0  0  2  0  0  0  0  0  0  0  0  0
   -2.5816   15.3587   -2.8816 C   0  0  0  0  0  0  0  0  0  0  0  0
    2.9825   14.9280   -2.0572 N   0  0  0  0  0  0  0  0  0  0  0  0
    1.2411   13.4100   -1.3178 N   0  0  0  0  0  0  0  0  0  0  0  0
   -0.9080   13.6369   -2.4647 N   0  0  0  0  0  0  0  0  0  0  0  0
    2.5073   16.2518   -3.5709 H   0  0  0  0  0  0  0  0  0  0  0  0
    3.1715   13.4962   -0.5682 H   0  0  0  0  0  0  0  0  0  0  0  0
   -0.4834   16.4924   -3.8697 H   0  0  0  0  0  0  0  0  0  0  0  0
   -0.0136   15.1857   -5.0051 H   0  0  0  0  0  0  0  0  0  0  0  0
   -2.8768   14.2663   -0.3142 H   0  0  0  0  0  0  0  0  0  0  0  0
   -4.0316   12.9440   -0.7994 H   0  0  0  0  0  0  0  0  0  0  0  0
   -5.7196   14.6716   -1.4875 H   0  0  0  0  0  0  0  0  0  0  0  0
   -4.5641   15.9931   -1.0014 H   0  0  0  0  0  0  0  0  0  0  0  0
   -4.0591   13.8030   -3.1575 H   0  0  0  0  0  0  0  0  0  0  0  0
   -1.8400   13.9463   -4.3186 H   0  0  0  0  0  0  0  0  0  0  0  0
   -2.9450   16.0337   -3.6519 H   0  0  0  0  0  0  0  0  0  0  0  0
   -2.1700   15.9500   -2.0680 H   0  0  0  0  0  0  0  0  0  0  0  0
   -1.4209   12.9290   -1.9628 H   0  0  0  0  0  0  0  0  0  0  0  0
  1  3  1  0  0  0  0
  1 11  2  0  0  0  0
  2 11  1  0  0  0  0
  2 12  2  0  0  0  0
  3  4  2  0  0  0  0
  3  5  1  0  0  0  0
  4 12  1  0  0  0  0
  4 13  1  0  0  0  0
  5  9  1  0  0  0  0
  6  7  1  0  0  0  0
  6  8  1  0  0  0  0
  7  8  1  0  0  0  0
  8 10  1  0  0  0  0
  9 10  1  0  0  0  0
  9 13  1  0  0  0  0
  1 14  1  0  0  0  0
  2 15  1  0  0  0  0
  5 16  1  0  0  0  0
  5 17  1  0  0  0  0
  6 18  1  0  0  0  0
  6 19  1  0  0  0  0
  7 20  1  0  0  0  0
  7 21  1  0  0  0  0
  8 22  1  0  0  0  0
  9 23  1  0  0  0  0
 10 24  1  0  0  0  0
 10 25  1  0  0  0  0
 13 26  1  0  0  0  0
M  END
> <FRED Chemgauss4 score>
-7.858881

$$$$
MOL0209_1
  -OEChem-06022418023D

 23 25  0     1  0  0  0  0  0999 V2000
    0.5165   13.8028   -1.9056 C   0  0  0  0  0  0  0  0  0  0  0  0
    2.6909   14.1471   -1.2925 C   0  0  0  0  0  0  0  0  0  0  0  0
    0.6457   14.7677   -2.8714 C   0  0  0  0  0  0  0  0  0  0  0  0
    1.8715   15.4063   -2.9841 C   0  0  0  0  0  0  0  0  0  0  0  0
   -2.2976   13.6457   -4.0353 C   0  0  0  0  0  0  0  0  0  0  0  0
   -2.4199   14.5890   -5.1993 C   0  0  0  0  0  0  0  0  0  0  0  0
    0.5982   16.1861   -4.7445 C   0  0  0  0  0  0  0  0  0  0  0  0
   -0.3354   15.3339   -3.8452 C   0  0  1  0  0  0  0  0  0  0  0  0
   -1.0714   14.2843   -4.6173 C   0  0  0  0  0  0  0  0  0  0  0  0
    1.5393   13.4638   -1.0943 N   0  0  0  0  0  0  0  0  0  0  0  0
    2.9249   15.1177   -2.2021 N   0  0  0  0  0  0  0  0  0  0  0  0
    1.8362   16.3678   -4.0048 N   0  0  0  0  0  0  0  0  0  0  0  0
   -0.4116   13.2692   -1.7406 H   0  0  0  0  0  0  0  0  0  0  0  0
    3.5204   13.8846   -0.6467 H   0  0  0  0  0  0  0  0  0  0  0  0
   -2.6568   13.9855   -3.0718 H   0  0  0  0  0  0  0  0  0  0  0  0
   -2.4499   12.5900   -4.2239 H   0  0  0  0  0  0  0  0  0  0  0  0
   -2.6538   14.1661   -6.1686 H   0  0  0  0  0  0  0  0  0  0  0  0
   -2.8612   15.5608   -5.0155 H   0  0  0  0  0  0  0  0  0  0  0  0
    0.8171   15.6825   -5.6944 H   0  0  0  0  0  0  0  0  0  0  0  0
    0.1395   17.1522   -4.9813 H   0  0  0  0  0  0  0  0  0  0  0  0
   -1.0387   15.9857   -3.3127 H   0  0  0  0  0  0  0  0  0  0  0  0
   -0.3975   13.6635   -5.1904 H   0  0  0  0  0  0  0  0  0  0  0  0
    2.6363   16.9002   -4.3092 H   0  0  0  0  0  0  0  0  0  0  0  0
  1  3  1  0  0  0  0
  1 10  2  0  0  0  0
  2 10  1  0  0  0  0
  2 11  2  0  0  0  0
  3  4  2  0  0  0  0
  3  8  1  0  0  0  0
  4 11  1  0  0  0  0
  4 12  1  0  0  0  0
  5  6  1  0  0  0  0
  5  9  1  0  0  0  0
  6  9  1  0  0  0  0
  7  8  1  0  0  0  0
  7 12  1  0  0  0  0
  8  9  1  0  0  0  0
  1 13  1  0  0  0  0
  2 14  1  0  0  0  0
  5 15  1  0  0  0  0
  5 16  1  0  0  0  0
  6 17  1  0  0  0  0
  6 18  1  0  0  0  0
  7 19  1  0  0  0  0
  7 20  1  0  0  0  0
  8 21  1  0  0  0  0
  9 22  1  0  0  0  0
 12 23  1  0  0  0  0
M  END
> <FRED Chemgauss4 score>
-7.856996

$$$$
MOL0044_8
  -OEChem-06022418023D

 26 28  0     1  0  0  0  0  0999 V2000
   -2.5056   15.0075    1.2965 C   0  0  0  0  0  0  0  0  0  0  0  0
   -0.2858   14.5995    0.9439 C   0  0  0  0  0  0  0  0  0  0  0  0
   -2.6894   15.1039   -0.0578 C   0  0  0  0  0  0  0  0  0  0  0  0
   -1.5843   14.9431   -0.8822 C   0  0  0  0  0  0  0  0  0  0  0  0
   -3.9075   15.3978   -0.8573 C   0  0  0  0  0  0  0  0  0  0  0  0
    1.3930   14.6790   -3.9707 C   0  0  0  0  0  0  0  0  0  0  0  0
    0.7753   15.9393   -4.5091 C   0  0  0  0  0  0  0  0  0  0  0  0
   -3.4156   15.0402   -2.2747 C   0  0  0  0  0  0  0  0  0  0  0  0
    0.2168   15.2991   -3.2686 C   0  0  0  0  0  0  0  0  0  0  0  0
   -1.1161   14.6320   -3.3035 C   0  0  0  0  0  0  0  0  0  0  0  0
   -1.2960   14.7485    1.8327 N   0  0  0  0  0  0  0  0  0  0  0  0
   -0.3550   14.6836   -0.4027 N   0  0  0  0  0  0  0  0  0  0  0  0
   -1.9569   15.0952   -2.2308 N   0  0  2  0  0  0  0  0  0  0  0  0
   -3.3187   15.1347    2.0006 H   0  0  0  0  0  0  0  0  0  0  0  0
    0.6920   14.3907    1.3618 H   0  0  0  0  0  0  0  0  0  0  0  0
   -4.7587   14.7779   -0.5621 H   0  0  0  0  0  0  0  0  0  0  0  0
   -4.1646   16.4592   -0.7836 H   0  0  0  0  0  0  0  0  0  0  0  0
    1.2402   13.7645   -4.5303 H   0  0  0  0  0  0  0  0  0  0  0  0
    2.3625   14.7567   -3.4940 H   0  0  0  0  0  0  0  0  0  0  0  0
    1.3303   16.8622   -4.3932 H   0  0  0  0  0  0  0  0  0  0  0  0
    0.2088   15.8690   -5.4295 H   0  0  0  0  0  0  0  0  0  0  0  0
   -3.7390   14.0238   -2.5350 H   0  0  0  0  0  0  0  0  0  0  0  0
   -3.8248   15.7260   -3.0242 H   0  0  0  0  0  0  0  0  0  0  0  0
    0.3999   15.7926   -2.3218 H   0  0  0  0  0  0  0  0  0  0  0  0
   -1.6039   14.8546   -4.2639 H   0  0  0  0  0  0  0  0  0  0  0  0
   -0.9763   13.5452   -3.2064 H   0  0  0  0  0  0  0  0  0  0  0  0
  1  3  1  0  0  0  0
  1 11  2  0  0  0  0
  2 11  1  0  0  0  0
  2 12  2  0  0  0  0
  3  4  2  0  0  0  0
  3  5  1  0  0  0  0
  4 12  1  0  0  0  0
  4 13  1  0  0  0  0
  5  8  1  0  0  0  0
  6  7  1  0  0  0  0
  6  9  1  0  0  0  0
  7  9  1  0  0  0  0
  8 13  1  0  0  0  0
  9 10  1  0  0  0  0
 10 13  1  0  0  0  0
  1 14  1  0  0  0  0
  2 15  1  0  0  0  0
  5 16  1  0  0  0  0
  5 17  1  0  0  0  0
  6 18  1  0  0  0  0
  6 19  1  0  0  0  0
  7 20  1  0  0  0  0
  7 21  1  0  0  0  0
  8 22  1  0  0  0  0
  8 23  1  0  0  0  0
  9 24  1  0  0  0  0
 10 25  1  0  0  0  0
 10 26  1  0  0  0  0
M  END
> <FRED Chemgauss4 score>
-7.851491

$$$$
MOL0222_6
  -OEChem-06022418023D

 31 33  0     0  0  0  0  0  0999 V2000
   -4.5624   14.7439   -0.1829 C   0  0  0  0  0  0  0  0  0  0  0  0
   -4.6146   13.7330   -1.1426 C   0  0  0  0  0  0  0  0  0  0  0  0
   -3.3599   15.4041    0.0700 C   0  0  0  0  0  0  0  0  0  0  0  0
   -3.4643   13.3823   -1.8494 C   0  0  0  0  0  0  0  0  0  0  0  0
   -2.2096   15.0533   -0.6367 C   0  0  0  0  0  0  0  0  0  0  0  0
    2.3275   14.0792   -1.4079 C   0  0  0  0  0  0  0  0  0  0  0  0
    0.5804   15.2218   -3.0994 C   0  0  0  0  0  0  0  0  0  0  0  0
   -2.2618   14.0424   -1.5964 C   0  0  0  0  0  0  0  0  0  0  0  0
    1.9052   15.6383   -3.0212 C   0  0  0  0  0  0  0  0  0  0  0  0
    0.2272   14.1731   -2.2681 C   0  0  0  0  0  0  0  0  0  0  0  0
   -0.3766   15.8302   -4.0786 C   0  0  0  0  0  0  0  0  0  0  0  0
    2.3804   16.7972   -3.8598 C   0  0  0  0  0  0  0  0  0  0  0  0
    0.1287   17.1671   -4.6287 C   0  0  0  0  0  0  0  0  0  0  0  0
    2.7983   15.0852   -2.1696 N   0  0  0  0  0  0  0  0  0  0  0  0
    1.0778   13.5804   -1.4059 N   0  0  0  0  0  0  0  0  0  0  0  0
    1.5329   17.0585   -5.0292 N   0  0  0  0  0  0  0  0  0  0  0  0
   -1.1036   13.6897   -2.3079 N   0  0  0  0  0  0  0  0  0  0  0  0
   -5.4581   15.0168    0.3676 H   0  0  0  0  0  0  0  0  0  0  0  0
   -5.5506   13.2191   -1.3393 H   0  0  0  0  0  0  0  0  0  0  0  0
   -3.3195   16.1913    0.8174 H   0  0  0  0  0  0  0  0  0  0  0  0
   -3.5155   12.5931   -2.5950 H   0  0  0  0  0  0  0  0  0  0  0  0
   -1.2782   15.5749   -0.4313 H   0  0  0  0  0  0  0  0  0  0  0  0
    3.0313   13.6223   -0.7232 H   0  0  0  0  0  0  0  0  0  0  0  0
   -0.5449   15.1542   -4.9251 H   0  0  0  0  0  0  0  0  0  0  0  0
   -1.3383   15.9852   -3.5730 H   0  0  0  0  0  0  0  0  0  0  0  0
    2.4122   17.7025   -3.2434 H   0  0  0  0  0  0  0  0  0  0  0  0
    3.4068   16.5954   -4.1885 H   0  0  0  0  0  0  0  0  0  0  0  0
   -0.4793   17.4897   -5.4835 H   0  0  0  0  0  0  0  0  0  0  0  0
    0.0269   17.9418   -3.8609 H   0  0  0  0  0  0  0  0  0  0  0  0
    1.8253   17.9320   -5.4678 H   0  0  0  0  0  0  0  0  0  0  0  0
   -1.2399   12.9460   -2.9826 H   0  0  0  0  0  0  0  0  0  0  0  0
  1  2  1  0  0  0  0
  1  3  2  0  0  0  0
  2  4  2  0  0  0  0
  3  5  1  0  0  0  0
  4  8  1  0  0  0  0
  5  8  2  0  0  0  0
  6 14  1  0  0  0  0
  6 15  2  0  0  0  0
  7  9  1  0  0  0  0
  7 10  2  0  0  0  0
  7 11  1  0  0  0  0
  8 17  1  0  0  0  0
  9 12  1  0  0  0  0
  9 14  2  0  0  0  0
 10 15  1  0  0  0  0
 10 17  1  0  0  0  0
 11 13  1  0  0  0  0
 12 16  1  0  0  0  0
 13 16  1  0  0  0  0
  1 18  1  0  0  0  0
  2 19  1  0  0  0  0
  3 20  1  0  0  0  0
  4 21  1  0  0  0  0
  5 22  1  0  0  0  0
  6 23  1  0  0  0  0
 11 24  1  0  0  0  0
 11 25  1  0  0  0  0
 12 26  1  0  0  0  0
 12 27  1  0  0  0  0
 13 28  1  0  0  0  0
 13 29  1  0  0  0  0
 16 30  1  0  0  0  0
 17 31  1  0  0  0  0
M  END
> <FRED Chemgauss4 score>
-7.814330

$$$$
MOL0221_1
  -OEChem-06022418023D

 20 21  0     1  0  0  0  0  0999 V2000
    0.4661   13.5335   -2.0428 C   0  0  0  0  0  0  0  0  0  0  0  0
    2.5345   13.9797   -1.1807 C   0  0  0  0  0  0  0  0  0  0  0  0
    0.6870   14.4605   -3.0299 C   0  0  0  0  0  0  0  0  0  0  0  0
    1.9071   15.1189   -3.0325 C   0  0  0  0  0  0  0  0  0  0  0  0
   -2.6298   14.6778   -4.3995 C   0  0  0  0  0  0  0  0  0  0  0  0
   -1.5509   15.2561   -3.8612 C   0  0  0  0  0  0  0  0  0  0  0  0
    0.6769   16.0806   -4.7377 C   0  0  0  0  0  0  0  0  0  0  0  0
   -0.1466   14.8802   -4.1975 C   0  0  1  0  0  0  0  0  0  0  0  0
    1.3830   13.2742   -1.0883 N   0  0  0  0  0  0  0  0  0  0  0  0
    2.8617   14.9006   -2.1127 N   0  0  0  0  0  0  0  0  0  0  0  0
    1.9877   16.0076   -4.1129 N   0  0  0  0  0  0  0  0  0  0  0  0
   -0.4508   12.9597   -1.9825 H   0  0  0  0  0  0  0  0  0  0  0  0
    3.2800   13.7807   -0.4199 H   0  0  0  0  0  0  0  0  0  0  0  0
   -3.6254   14.9977   -4.1122 H   0  0  0  0  0  0  0  0  0  0  0  0
   -2.5418   13.8815   -5.1305 H   0  0  0  0  0  0  0  0  0  0  0  0
   -1.6907   16.0499   -3.1326 H   0  0  0  0  0  0  0  0  0  0  0  0
    0.7665   16.0333   -5.8287 H   0  0  0  0  0  0  0  0  0  0  0  0
    0.2148   17.0428   -4.4836 H   0  0  0  0  0  0  0  0  0  0  0  0
   -0.1477   14.0728   -4.9393 H   0  0  0  0  0  0  0  0  0  0  0  0
    2.7602   16.6335   -4.2797 H   0  0  0  0  0  0  0  0  0  0  0  0
  1  3  1  0  0  0  0
  1  9  2  0  0  0  0
  2  9  1  0  0  0  0
  2 10  2  0  0  0  0
  3  4  2  0  0  0  0
  3  8  1  0  0  0  0
  4 10  1  0  0  0  0
  4 11  1  0  0  0  0
  5  6  2  0  0  0  0
  6  8  1  0  0  0  0
  7  8  1  0  0  0  0
  7 11  1  0  0  0  0
  1 12  1  0  0  0  0
  2 13  1  0  0  0  0
  5 14  1  0  0  0  0
  5 15  1  0  0  0  0
  6 16  1  0  0  0  0
  7 17  1  0  0  0  0
  7 18  1  0  0  0  0
  8 19  1  0  0  0  0
 11 20  1  0  0  0  0
M  END
> <FRED Chemgauss4 score>
-7.792566

$$$$
MOL0094_2
  -OEChem-06022418023D

 28 30  0     0  0  0  0  0  0999 V2000
    2.9083   13.5137   -2.6563 C   0  0  0  0  0  0  0  0  0  0  0  0
    1.9633   12.4887   -2.6114 C   0  0  0  0  0  0  0  0  0  0  0  0
    2.5071   14.8206   -2.9335 C   0  0  0  0  0  0  0  0  0  0  0  0
    0.6171   12.7705   -2.8438 C   0  0  0  0  0  0  0  0  0  0  0  0
    1.1609   15.1024   -3.1659 C   0  0  0  0  0  0  0  0  0  0  0  0
   -2.1644   15.1024    1.2666 C   0  0  0  0  0  0  0  0  0  0  0  0
   -0.0007   14.5589    0.7668 C   0  0  0  0  0  0  0  0  0  0  0  0
    0.2159   14.0774   -3.1211 C   0  0  0  0  0  0  0  0  0  0  0  0
   -2.4825   15.0418   -0.0662 C   0  0  0  0  0  0  0  0  0  0  0  0
   -1.4648   14.7222   -0.9432 C   0  0  0  0  0  0  0  0  0  0  0  0
   -1.2029   14.3744   -3.3661 C   0  0  0  0  0  0  0  0  0  0  0  0
   -3.7871   15.2531   -0.7478 C   0  0  0  0  0  0  0  0  0  0  0  0
   -3.4020   15.0613   -2.2218 C   0  0  0  0  0  0  0  0  0  0  0  0
   -0.9149   14.8643    1.7176 N   0  0  0  0  0  0  0  0  0  0  0  0
   -0.2013   14.4696   -0.5649 N   0  0  0  0  0  0  0  0  0  0  0  0
   -1.9671   14.7054   -2.2594 N   0  0  0  0  0  0  0  0  0  0  0  0
   -1.5879   14.3169   -4.5315 O   0  0  0  0  0  0  0  0  0  0  0  0
    3.9564   13.2942   -2.4754 H   0  0  0  0  0  0  0  0  0  0  0  0
    2.2759   11.4712   -2.3958 H   0  0  0  0  0  0  0  0  0  0  0  0
    3.2428   15.6187   -2.9681 H   0  0  0  0  0  0  0  0  0  0  0  0
   -0.1109   11.9642   -2.8064 H   0  0  0  0  0  0  0  0  0  0  0  0
    0.8597   16.1244   -3.3811 H   0  0  0  0  0  0  0  0  0  0  0  0
   -2.9013   15.3424    2.0238 H   0  0  0  0  0  0  0  0  0  0  0  0
    1.0064   14.3640    1.1157 H   0  0  0  0  0  0  0  0  0  0  0  0
   -4.5198   14.5051   -0.4304 H   0  0  0  0  0  0  0  0  0  0  0  0
   -4.1716   16.2610   -0.5662 H   0  0  0  0  0  0  0  0  0  0  0  0
   -3.9850   14.2625   -2.6938 H   0  0  0  0  0  0  0  0  0  0  0  0
   -3.5513   15.9800   -2.8008 H   0  0  0  0  0  0  0  0  0  0  0  0
  1  2  1  0  0  0  0
  1  3  2  0  0  0  0
  2  4  2  0  0  0  0
  3  5  1  0  0  0  0
  4  8  1  0  0  0  0
  5  8  2  0  0  0  0
  6  9  1  0  0  0  0
  6 14  2  0  0  0  0
  7 14  1  0  0  0  0
  7 15  2  0  0  0  0
  8 11  1  0  0  0  0
  9 10  2  0  0  0  0
  9 12  1  0  0  0  0
 10 15  1  0  0  0  0
 10 16  1  0  0  0  0
 11 16  1  0  0  0  0
 11 17  2  0  0  0  0
 12 13  1  0  0  0  0
 13 16  1  0  0  0  0
  1 18  1  0  0  0  0
  2 19  1  0  0  0  0
  3 20  1  0  0  0  0
  4 21  1  0  0  0  0
  5 22  1  0  0  0  0
  6 23  1  0  0  0  0
  7 24  1  0  0  0  0
 12 25  1  0  0  0  0
 12 26  1  0  0  0  0
 13 27  1  0  0  0  0
 13 28  1  0  0  0  0
M  END
> <FRED Chemgauss4 score>
-7.763465

$$$$
MOL0097_1
  -OEChem-06022418023D

 21 22  0     1  0  0  0  0  0999 V2000
    0.2159   13.7645   -1.9839 C   0  0  0  0  0  0  0  0  0  0  0  0
    2.4074   13.9303   -1.4334 C   0  0  0  0  0  0  0  0  0  0  0  0
    0.3304   14.7920   -2.9066 C   0  0  0  0  0  0  0  0  0  0  0  0
    1.5906   15.3903   -3.0046 C   0  0  0  0  0  0  0  0  0  0  0  0
    0.5886   17.1530   -4.3706 C   0  0  0  0  0  0  0  0  0  0  0  0
   -0.4914   16.1381   -4.7647 C   0  0  2  0  0  0  0  0  0  0  0  0
   -1.7843   16.8417   -5.1600 C   0  0  0  0  0  0  0  0  0  0  0  0
    1.2360   13.3055   -1.2327 N   0  0  0  0  0  0  0  0  0  0  0  0
    2.6466   14.9500   -2.2799 N   0  0  0  0  0  0  0  0  0  0  0  0
   -0.7508   15.2355   -3.6504 N   0  0  0  0  0  0  0  0  0  0  0  0
    1.7658   16.4638   -3.8760 N   0  0  0  0  0  0  0  0  0  0  0  0
   -0.7305   13.2572   -1.8214 H   0  0  0  0  0  0  0  0  0  0  0  0
    3.2502   13.5792   -0.8507 H   0  0  0  0  0  0  0  0  0  0  0  0
    0.8684   17.7622   -5.2373 H   0  0  0  0  0  0  0  0  0  0  0  0
    0.2176   17.8399   -3.5993 H   0  0  0  0  0  0  0  0  0  0  0  0
   -0.1397   15.5490   -5.6219 H   0  0  0  0  0  0  0  0  0  0  0  0
   -2.1556   17.4349   -4.3246 H   0  0  0  0  0  0  0  0  0  0  0  0
   -2.5394   16.1055   -5.4349 H   0  0  0  0  0  0  0  0  0  0  0  0
   -1.6050   17.4998   -6.0099 H   0  0  0  0  0  0  0  0  0  0  0  0
   -1.6126   14.7031   -3.6276 H   0  0  0  0  0  0  0  0  0  0  0  0
    2.6751   16.9063   -3.9224 H   0  0  0  0  0  0  0  0  0  0  0  0
  1  3  1  0  0  0  0
  1  8  2  0  0  0  0
  2  8  1  0  0  0  0
  2  9  2  0  0  0  0
  3  4  2  0  0  0  0
  3 10  1  0  0  0  0
  4  9  1  0  0  0  0
  4 11  1  0  0  0  0
  5  6  1  0  0  0  0
  5 11  1  0  0  0  0
  6  7  1  0  0  0  0
  6 10  1  0  0  0  0
  1 12  1  0  0  0  0
  2 13  1  0  0  0  0
  5 14  1  0  0  0  0
  5 15  1  0  0  0  0
  6 16  1  0  0  0  0
  7 17  1  0  0  0  0
  7 18  1  0  0  0  0
  7 19  1  0  0  0  0
 10 20  1  0  0  0  0
 11 21  1  0  0  0  0
M  END
> <FRED Chemgauss4 score>
-7.724505

$$$$
MOL0024_1
  -OEChem-06022418023D

 22 23  0     1  0  0  0  0  0999 V2000
   -1.0437   14.8577   -0.9501 C   0  0  0  0  0  0  0  0  0  0  0  0
    0.1098   14.6713    1.0138 C   0  0  0  0  0  0  0  0  0  0  0  0
   -2.1893   15.1161   -0.2421 C   0  0  0  0  0  0  0  0  0  0  0  0
   -2.0989   15.1440    1.1414 C   0  0  0  0  0  0  0  0  0  0  0  0
   -4.3463   15.3569    0.6591 C   0  0  0  0  0  0  0  0  0  0  0  0
   -3.5786   15.4385   -0.6865 C   0  0  2  0  0  0  0  0  0  0  0  0
   -5.5525   14.8227   -2.0911 C   0  0  0  0  0  0  0  0  0  0  0  0
   -4.1375   14.4911   -1.7362 C   0  0  0  0  0  0  0  0  0  0  0  0
    0.1355   14.6233   -0.3388 N   0  0  0  0  0  0  0  0  0  0  0  0
   -0.9531   14.9247    1.8074 N   0  0  0  0  0  0  0  0  0  0  0  0
   -3.3477   15.4296    1.7128 N   0  0  0  0  0  0  0  0  0  0  0  0
   -1.0259   14.8342   -2.0329 H   0  0  0  0  0  0  0  0  0  0  0  0
    1.0513   14.4859    1.5170 H   0  0  0  0  0  0  0  0  0  0  0  0
   -5.0707   16.1733    0.7486 H   0  0  0  0  0  0  0  0  0  0  0  0
   -4.8943   14.4112    0.7505 H   0  0  0  0  0  0  0  0  0  0  0  0
   -3.5989   16.4704   -1.0584 H   0  0  0  0  0  0  0  0  0  0  0  0
   -6.1816   14.7766   -1.1944 H   0  0  0  0  0  0  0  0  0  0  0  0
   -5.9480   14.1078   -2.8205 H   0  0  0  0  0  0  0  0  0  0  0  0
   -5.6226   15.8347   -2.5037 H   0  0  0  0  0  0  0  0  0  0  0  0
   -3.5171   14.5397   -2.6376 H   0  0  0  0  0  0  0  0  0  0  0  0
   -4.0897   13.4631   -1.3610 H   0  0  0  0  0  0  0  0  0  0  0  0
   -3.5308   15.4283    2.7044 H   0  0  0  0  0  0  0  0  0  0  0  0
  1  3  1  0  0  0  0
  1  9  2  0  0  0  0
  2  9  1  0  0  0  0
  2 10  2  0  0  0  0
  3  4  2  0  0  0  0
  3  6  1  0  0  0  0
  4 10  1  0  0  0  0
  4 11  1  0  0  0  0
  5  6  1  0  0  0  0
  5 11  1  0  0  0  0
  6  8  1  0  0  0  0
  7  8  1  0  0  0  0
  1 12  1  0  0  0  0
  2 13  1  0  0  0  0
  5 14  1  0  0  0  0
  5 15  1  0  0  0  0
  6 16  1  0  0  0  0
  7 17  1  0  0  0  0
  7 18  1  0  0  0  0
  7 19  1  0  0  0  0
  8 20  1  0  0  0  0
  8 21  1  0  0  0  0
 11 22  1  0  0  0  0
M  END
> <FRED Chemgauss4 score>
-7.717088

$$$$
MOL0065_2
  -OEChem-06022418023D

 21 22  0     0  0  0  0  0  0999 V2000
    2.2823   14.2277   -1.1667 C   0  0  0  0  0  0  0  0  0  0  0  0
    0.6835   14.7091   -3.2291 C   0  0  0  0  0  0  0  0  0  0  0  0
    1.8481   15.4330   -3.0307 C   0  0  0  0  0  0  0  0  0  0  0  0
    0.3715   13.7334   -2.3196 C   0  0  0  0  0  0  0  0  0  0  0  0
   -0.0453   15.1970   -4.4290 C   0  0  0  0  0  0  0  0  0  0  0  0
    1.0020   16.1409   -5.0585 C   0  0  0  0  0  0  0  0  0  0  0  0
   -2.1128   13.6030   -2.5111 C   0  0  0  0  0  0  0  0  0  0  0  0
    2.6787   15.2160   -1.9980 N   0  0  0  0  0  0  0  0  0  0  0  0
    1.1676   13.4645   -1.2648 N   0  0  0  0  0  0  0  0  0  0  0  0
    2.0068   16.3944   -4.0397 N   0  0  0  0  0  0  0  0  0  0  0  0
   -0.8197   12.9948   -2.4935 N   0  0  0  0  0  0  0  0  0  0  0  0
    2.9300   14.0207   -0.3229 H   0  0  0  0  0  0  0  0  0  0  0  0
   -0.3069   14.3850   -5.1137 H   0  0  0  0  0  0  0  0  0  0  0  0
   -0.9430   15.7490   -4.1324 H   0  0  0  0  0  0  0  0  0  0  0  0
    1.4747   15.6566   -5.9212 H   0  0  0  0  0  0  0  0  0  0  0  0
    0.5420   17.0721   -5.4052 H   0  0  0  0  0  0  0  0  0  0  0  0
   -2.0095   14.6895   -2.3735 H   0  0  0  0  0  0  0  0  0  0  0  0
   -2.6000   13.4005   -3.4763 H   0  0  0  0  0  0  0  0  0  0  0  0
   -2.7247   13.1871   -1.6971 H   0  0  0  0  0  0  0  0  0  0  0  0
    2.8141   16.9902   -4.1363 H   0  0  0  0  0  0  0  0  0  0  0  0
   -0.7254   12.0040   -2.6057 H   0  0  0  0  0  0  0  0  0  0  0  0
  1  8  1  0  0  0  0
  1  9  2  0  0  0  0
  2  3  1  0  0  0  0
  2  4  2  0  0  0  0
  2  5  1  0  0  0  0
  3  8  2  0  0  0  0
  3 10  1  0  0  0  0
  4  9  1  0  0  0  0
  4 11  1  0  0  0  0
  5  6  1  0  0  0  0
  6 10  1  0  0  0  0
  7 11  1  0  0  0  0
  1 12  1  0  0  0  0
  5 13  1  0  0  0  0
  5 14  1  0  0  0  0
  6 15  1  0  0  0  0
  6 16  1  0  0  0  0
  7 17  1  0  0  0  0
  7 18  1  0  0  0  0
  7 19  1  0  0  0  0
 10 20  1  0  0  0  0
 11 21  1  0  0  0  0
M  END
> <FRED Chemgauss4 score>
-7.668821

$$$$
MOL0213_9
  -OEChem-06022418023D

 26 28  0     1  0  0  0  0  0999 V2000
   -2.5070   15.1174    1.1862 C   0  0  0  0  0  0  0  0  0  0  0  0
   -0.2350   14.8158    1.0892 C   0  0  0  0  0  0  0  0  0  0  0  0
   -2.5841   14.9269   -0.1670 C   0  0  0  0  0  0  0  0  0  0  0  0
   -1.3961   14.6934   -0.8229 C   0  0  0  0  0  0  0  0  0  0  0  0
   -3.7498   14.8595   -1.0853 C   0  0  0  0  0  0  0  0  0  0  0  0
    1.3083   13.3592   -4.6929 C   0  0  0  0  0  0  0  0  0  0  0  0
    1.1358   12.6996   -3.3528 C   0  0  0  0  0  0  0  0  0  0  0  0
   -3.0656   14.8300   -2.4685 C   0  0  0  0  0  0  0  0  0  0  0  0
   -0.0336   13.3506   -4.0264 C   0  0  0  0  0  0  0  0  0  0  0  0
   -1.3291   15.0768    1.8482 N   0  0  0  0  0  0  0  0  0  0  0  0
   -0.1928   14.6002   -0.2420 N   0  0  0  0  0  0  0  0  0  0  0  0
   -1.6399   14.4288   -2.2075 N   0  0  1  0  0  0  0  0  0  0  0  0
    0.7172   15.3904   -2.5765 O   0  0  0  0  0  0  0  0  0  0  0  0
   -1.0546   15.7347   -4.3451 O   0  0  0  0  0  0  0  0  0  0  0  0
   -0.4472   14.9217   -3.3065 S   0  0  0  0  0  0  0  0  0  0  0  0
   -3.3844   15.2987    1.7950 H   0  0  0  0  0  0  0  0  0  0  0  0
    0.7115   14.7717    1.6147 H   0  0  0  0  0  0  0  0  0  0  0  0
   -4.3133   13.9365   -0.9133 H   0  0  0  0  0  0  0  0  0  0  0  0
   -4.4155   15.7217   -0.9888 H   0  0  0  0  0  0  0  0  0  0  0  0
    1.8802   14.2780   -4.7329 H   0  0  0  0  0  0  0  0  0  0  0  0
    1.4462   12.7162   -5.5541 H   0  0  0  0  0  0  0  0  0  0  0  0
    1.1587   11.6167   -3.3204 H   0  0  0  0  0  0  0  0  0  0  0  0
    1.5920   13.1758   -2.4938 H   0  0  0  0  0  0  0  0  0  0  0  0
   -3.5512   14.1196   -3.1437 H   0  0  0  0  0  0  0  0  0  0  0  0
   -3.0922   15.8294   -2.9199 H   0  0  0  0  0  0  0  0  0  0  0  0
   -0.8194   12.7304   -4.4328 H   0  0  0  0  0  0  0  0  0  0  0  0
  1  3  1  0  0  0  0
  1 10  2  0  0  0  0
  2 10  1  0  0  0  0
  2 11  2  0  0  0  0
  3  4  2  0  0  0  0
  3  5  1  0  0  0  0
  4 11  1  0  0  0  0
  4 12  1  0  0  0  0
  5  8  1  0  0  0  0
  6  7  1  0  0  0  0
  6  9  1  0  0  0  0
  7  9  1  0  0  0  0
  8 12  1  0  0  0  0
  9 15  1  0  0  0  0
 12 15  1  0  0  0  0
 13 15  2  0  0  0  0
 14 15  2  0  0  0  0
  1 16  1  0  0  0  0
  2 17  1  0  0  0  0
  5 18  1  0  0  0  0
  5 19  1  0  0  0  0
  6 20  1  0  0  0  0
  6 21  1  0  0  0  0
  7 22  1  0  0  0  0
  7 23  1  0  0  0  0
  8 24  1  0  0  0  0
  8 25  1  0  0  0  0
  9 26  1  0  0  0  0
M  END
> <FRED Chemgauss4 score>
-7.664352

$$$$
MOL0016_1
  -OEChem-06022418023D

 17 18  0     0  0  0  0  0  0999 V2000
    0.3196   14.0509   -2.1440 C   0  0  0  0  0  0  0  0  0  0  0  0
    0.4056   15.0727   -3.0523 C   0  0  0  0  0  0  0  0  0  0  0  0
    1.6327   15.6954   -3.2145 C   0  0  0  0  0  0  0  0  0  0  0  0
    2.5393   14.3166   -1.6677 C   0  0  0  0  0  0  0  0  0  0  0  0
   -0.6271   15.7052   -3.9139 C   0  0  0  0  0  0  0  0  0  0  0  0
    0.2391   16.6217   -4.8049 C   0  0  0  0  0  0  0  0  0  0  0  0
    1.3885   13.6432   -1.4299 N   0  0  0  0  0  0  0  0  0  0  0  0
    2.7316   15.3387   -2.5299 N   0  0  0  0  0  0  0  0  0  0  0  0
    1.5407   16.7217   -4.1664 N   0  0  0  0  0  0  0  0  0  0  0  0
    3.6391   13.9130   -0.9459 O   0  0  0  0  0  0  0  0  0  0  0  0
   -0.6073   13.5243   -1.9529 H   0  0  0  0  0  0  0  0  0  0  0  0
   -1.1719   14.9687   -4.5111 H   0  0  0  0  0  0  0  0  0  0  0  0
   -1.3234   16.2916   -3.3062 H   0  0  0  0  0  0  0  0  0  0  0  0
    0.3566   16.1767   -5.8002 H   0  0  0  0  0  0  0  0  0  0  0  0
   -0.2212   17.6071   -4.9295 H   0  0  0  0  0  0  0  0  0  0  0  0
    2.3233   17.2670   -4.4932 H   0  0  0  0  0  0  0  0  0  0  0  0
    3.3917   13.1832   -0.3644 H   0  0  0  0  0  0  0  0  0  0  0  0
  1  2  1  0  0  0  0
  1  7  2  0  0  0  0
  2  3  2  0  0  0  0
  2  5  1  0  0  0  0
  3  8  1  0  0  0  0
  3  9  1  0  0  0  0
  4  7  1  0  0  0  0
  4  8  2  0  0  0  0
  4 10  1  0  0  0  0
  5  6  1  0  0  0  0
  6  9  1  0  0  0  0
  1 11  1  0  0  0  0
  5 12  1  0  0  0  0
  5 13  1  0  0  0  0
  6 14  1  0  0  0  0
  6 15  1  0  0  0  0
  9 16  1  0  0  0  0
 10 17  1  0  0  0  0
M  END
> <FRED Chemgauss4 score>
-7.637744

$$$$
MOL0194_2
  -OEChem-06022418023D

 31 33  0     1  0  0  0  0  0999 V2000
    0.4384   13.7078   -1.9108 C   0  0  0  0  0  0  0  0  0  0  0  0
    2.6961   13.8440   -1.5840 C   0  0  0  0  0  0  0  0  0  0  0  0
    0.4985   14.8117   -2.7221 C   0  0  0  0  0  0  0  0  0  0  0  0
    1.7383   15.4020   -2.9158 C   0  0  0  0  0  0  0  0  0  0  0  0
   -4.7035   14.1814   -2.5432 C   0  0  0  0  0  0  0  0  0  0  0  0
   -4.4737   12.8319   -3.2169 C   0  0  0  0  0  0  0  0  0  0  0  0
   -3.5685   15.0689   -3.0325 C   0  0  0  0  0  0  0  0  0  0  0  0
   -3.2220   13.0171   -4.0617 C   0  0  0  0  0  0  0  0  0  0  0  0
    0.2889   16.5203   -4.3219 C   0  0  0  0  0  0  0  0  0  0  0  0
   -0.5672   15.5761   -3.4373 C   0  0  1  0  0  0  0  0  0  0  0  0
   -1.5177   14.7141   -4.2530 C   0  0  0  0  0  0  0  0  0  0  0  0
    1.5384   13.1921   -1.3248 N   0  0  0  0  0  0  0  0  0  0  0  0
    2.8680   14.9393   -2.3553 N   0  0  0  0  0  0  0  0  0  0  0  0
    1.6280   16.5193   -3.7567 N   0  0  0  0  0  0  0  0  0  0  0  0
   -2.5225   14.1039   -3.3747 N   0  0  0  0  0  0  0  0  0  0  0  0
   -0.4929   13.1984   -1.6951 H   0  0  0  0  0  0  0  0  0  0  0  0
    3.5871   13.4405   -1.1178 H   0  0  0  0  0  0  0  0  0  0  0  0
   -5.6810   14.6020   -2.8005 H   0  0  0  0  0  0  0  0  0  0  0  0
   -4.6646   14.0636   -1.4538 H   0  0  0  0  0  0  0  0  0  0  0  0
   -4.3189   12.0588   -2.4552 H   0  0  0  0  0  0  0  0  0  0  0  0
   -5.3306   12.5332   -3.8295 H   0  0  0  0  0  0  0  0  0  0  0  0
   -3.8955   15.6321   -3.9130 H   0  0  0  0  0  0  0  0  0  0  0  0
   -3.2472   15.7713   -2.2607 H   0  0  0  0  0  0  0  0  0  0  0  0
   -2.6268   12.1026   -4.1029 H   0  0  0  0  0  0  0  0  0  0  0  0
   -3.5042   13.3045   -5.0802 H   0  0  0  0  0  0  0  0  0  0  0  0
    0.3379   16.1630   -5.3578 H   0  0  0  0  0  0  0  0  0  0  0  0
   -0.1297   17.5321   -4.3366 H   0  0  0  0  0  0  0  0  0  0  0  0
   -1.1280   16.1688   -2.7041 H   0  0  0  0  0  0  0  0  0  0  0  0
   -1.9989   15.3599   -4.9886 H   0  0  0  0  0  0  0  0  0  0  0  0
   -0.9236   13.9420   -4.7435 H   0  0  0  0  0  0  0  0  0  0  0  0
    2.4129   17.0567   -4.0907 H   0  0  0  0  0  0  0  0  0  0  0  0
  1  3  1  0  0  0  0
  1 12  2  0  0  0  0
  2 12  1  0  0  0  0
  2 13  2  0  0  0  0
  3  4  2  0  0  0  0
  3 10  1  0  0  0  0
  4 13  1  0  0  0  0
  4 14  1  0  0  0  0
  5  6  1  0  0  0  0
  5  7  1  0  0  0  0
  6  8  1  0  0  0  0
  7 15  1  0  0  0  0
  8 15  1  0  0  0  0
  9 10  1  0  0  0  0
  9 14  1  0  0  0  0
 10 11  1  0  0  0  0
 11 15  1  0  0  0  0
  1 16  1  0  0  0  0
  2 17  1  0  0  0  0
  5 18  1  0  0  0  0
  5 19  1  0  0  0  0
  6 20  1  0  0  0  0
  6 21  1  0  0  0  0
  7 22  1  0  0  0  0
  7 23  1  0  0  0  0
  8 24  1  0  0  0  0
  8 25  1  0  0  0  0
  9 26  1  0  0  0  0
  9 27  1  0  0  0  0
 10 28  1  0  0  0  0
 11 29  1  0  0  0  0
 11 30  1  0  0  0  0
 14 31  1  0  0  0  0
M  END
> <FRED Chemgauss4 score>
-7.618636

$$$$
MOL0181_3
  -OEChem-06022418023D

 20 21  0     1  0  0  0  0  0999 V2000
    0.5601   13.6401   -2.6246 C   0  0  0  0  0  0  0  0  0  0  0  0
    2.5228   14.0395   -1.5244 C   0  0  0  0  0  0  0  0  0  0  0  0
    0.7131   14.8197   -3.3069 C   0  0  0  0  0  0  0  0  0  0  0  0
    1.8431   15.5773   -3.0381 C   0  0  0  0  0  0  0  0  0  0  0  0
    0.5568   16.8601   -4.4624 C   0  0  0  0  0  0  0  0  0  0  0  0
   -0.1119   15.4631   -4.3732 C   0  0  2  0  0  0  0  0  0  0  0  0
   -1.5962   15.5454   -4.0542 C   0  0  0  0  0  0  0  0  0  0  0  0
    1.4599   13.2222   -1.7109 N   0  0  0  0  0  0  0  0  0  0  0  0
    2.7772   15.2119   -2.1447 N   0  0  0  0  0  0  0  0  0  0  0  0
    1.8556   16.7413   -3.8207 N   0  0  0  0  0  0  0  0  0  0  0  0
   -2.2597   16.1816   -5.1333 O   0  0  0  0  0  0  0  0  0  0  0  0
   -0.2854   12.9830   -2.7880 H   0  0  0  0  0  0  0  0  0  0  0  0
    3.2538   13.7144   -0.7937 H   0  0  0  0  0  0  0  0  0  0  0  0
    0.6621   17.1798   -5.5044 H   0  0  0  0  0  0  0  0  0  0  0  0
   -0.0335   17.6206   -3.9367 H   0  0  0  0  0  0  0  0  0  0  0  0
    0.0439   14.9212   -5.3142 H   0  0  0  0  0  0  0  0  0  0  0  0
   -1.7547   16.1278   -3.1445 H   0  0  0  0  0  0  0  0  0  0  0  0
   -2.0098   14.5437   -3.9216 H   0  0  0  0  0  0  0  0  0  0  0  0
    2.5452   17.4723   -3.7381 H   0  0  0  0  0  0  0  0  0  0  0  0
   -3.2032   16.2205   -4.9032 H   0  0  0  0  0  0  0  0  0  0  0  0
  1  3  1  0  0  0  0
  1  8  2  0  0  0  0
  2  8  1  0  0  0  0
  2  9  2  0  0  0  0
  3  4  2  0  0  0  0
  3  6  1  0  0  0  0
  4  9  1  0  0  0  0
  4 10  1  0  0  0  0
  5  6  1  0  0  0  0
  5 10  1  0  0  0  0
  6  7  1  0  0  0  0
  7 11  1  0  0  0  0
  1 12  1  0  0  0  0
  2 13  1  0  0  0  0
  5 14  1  0  0  0  0
  5 15  1  0  0  0  0
  6 16  1  0  0  0  0
  7 17  1  0  0  0  0
  7 18  1  0  0  0  0
 10 19  1  0  0  0  0
 11 20  1  0  0  0  0
M  END
> <FRED Chemgauss4 score>
-7.600255

$$$$
MOL0057_4
  -OEChem-06022418023D

 26 27  0     1  0  0  0  0  0999 V2000
   -2.1830   15.1693    1.3115 C   0  0  0  0  0  0  0  0  0  0  0  0
    0.0184   14.5732    1.4410 C   0  0  0  0  0  0  0  0  0  0  0  0
   -2.1244   15.0394   -0.0512 C   0  0  0  0  0  0  0  0  0  0  0  0
   -0.9143   14.6714   -0.6229 C   0  0  0  0  0  0  0  0  0  0  0  0
   -3.1572   15.2625   -1.0966 C   0  0  0  0  0  0  0  0  0  0  0  0
   -2.4656   14.6348   -2.3241 C   0  0  0  0  0  0  0  0  0  0  0  0
    0.0849   14.5400   -4.2163 C   0  0  0  0  0  0  0  0  0  0  0  0
   -0.0710   13.9161   -2.8358 C   0  0  0  0  0  0  0  0  0  0  0  0
    0.5629   15.9859   -4.1606 C   0  0  0  0  0  0  0  0  0  0  0  0
   -1.1107   14.9352    2.0944 N   0  0  0  0  0  0  0  0  0  0  0  0
    0.1871   14.4257    0.1087 N   0  0  0  0  0  0  0  0  0  0  0  0
   -1.0368   14.6086   -2.0235 N   0  0  2  0  0  0  0  0  0  0  0  0
    1.8346   16.0232   -3.5265 O   0  0  0  0  0  0  0  0  0  0  0  0
   -3.0892   15.4658    1.8253 H   0  0  0  0  0  0  0  0  0  0  0  0
    0.8879   14.3819    2.0586 H   0  0  0  0  0  0  0  0  0  0  0  0
   -4.0986   14.7559   -0.8665 H   0  0  0  0  0  0  0  0  0  0  0  0
   -3.3262   16.3341   -1.2425 H   0  0  0  0  0  0  0  0  0  0  0  0
   -2.8305   13.6099   -2.4725 H   0  0  0  0  0  0  0  0  0  0  0  0
   -2.6779   15.2031   -3.2359 H   0  0  0  0  0  0  0  0  0  0  0  0
    0.8025   13.9509   -4.8010 H   0  0  0  0  0  0  0  0  0  0  0  0
   -0.8625   14.4915   -4.7679 H   0  0  0  0  0  0  0  0  0  0  0  0
   -0.4149   12.8811   -2.9275 H   0  0  0  0  0  0  0  0  0  0  0  0
    0.8809   13.9137   -2.2952 H   0  0  0  0  0  0  0  0  0  0  0  0
    0.6661   16.4089   -5.1646 H   0  0  0  0  0  0  0  0  0  0  0  0
   -0.1316   16.6040   -3.5826 H   0  0  0  0  0  0  0  0  0  0  0  0
    2.1103   16.9538   -3.5066 H   0  0  0  0  0  0  0  0  0  0  0  0
  1  3  1  0  0  0  0
  1 10  2  0  0  0  0
  2 10  1  0  0  0  0
  2 11  2  0  0  0  0
  3  4  2  0  0  0  0
  3  5  1  0  0  0  0
  4 11  1  0  0  0  0
  4 12  1  0  0  0  0
  5  6  1  0  0  0  0
  6 12  1  0  0  0  0
  7  8  1  0  0  0  0
  7  9  1  0  0  0  0
  8 12  1  0  0  0  0
  9 13  1  0  0  0  0
  1 14  1  0  0  0  0
  2 15  1  0  0  0  0
  5 16  1  0  0  0  0
  5 17  1  0  0  0  0
  6 18  1  0  0  0  0
  6 19  1  0  0  0  0
  7 20  1  0  0  0  0
  7 21  1  0  0  0  0
  8 22  1  0  0  0  0
  8 23  1  0  0  0  0
  9 24  1  0  0  0  0
  9 25  1  0  0  0  0
 13 26  1  0  0  0  0
M  END
> <FRED Chemgauss4 score>
-7.596573

$$$$
MOL0103_2
  -OEChem-06022418023D

 29 31  0     1  0  0  0  0  0999 V2000
   -2.7666   14.8611    1.4010 C   0  0  0  0  0  0  0  0  0  0  0  0
   -0.5368   14.7843    0.9109 C   0  0  0  0  0  0  0  0  0  0  0  0
   -3.0501   14.7787    0.0630 C   0  0  0  0  0  0  0  0  0  0  0  0
   -1.9890   14.6862   -0.8271 C   0  0  0  0  0  0  0  0  0  0  0  0
   -4.3498   14.7323   -0.6567 C   0  0  0  0  0  0  0  0  0  0  0  0
   -0.9279   11.0473   -3.9456 C   0  0  0  0  0  0  0  0  0  0  0  0
   -1.9732   11.4347   -2.9371 C   0  0  0  0  0  0  0  0  0  0  0  0
   -3.8828   14.9491   -2.1105 C   0  0  0  0  0  0  0  0  0  0  0  0
   -1.5553   12.4127   -3.9999 C   0  0  0  0  0  0  0  0  0  0  0  0
   -0.7427   13.6454   -3.6299 C   0  0  0  0  0  0  0  0  0  0  0  0
   -1.6168   14.8436   -3.2797 C   0  0  0  0  0  0  0  0  0  0  0  0
   -1.4990   14.8695    1.8595 N   0  0  0  0  0  0  0  0  0  0  0  0
   -0.7052   14.6903   -0.4262 N   0  0  0  0  0  0  0  0  0  0  0  0
   -2.4680   14.5891   -2.1470 N   0  0  1  0  0  0  0  0  0  0  0  0
   -3.5432   14.9238    2.1534 H   0  0  0  0  0  0  0  0  0  0  0  0
    0.4869   14.7952    1.2658 H   0  0  0  0  0  0  0  0  0  0  0  0
   -4.8563   13.7703   -0.5395 H   0  0  0  0  0  0  0  0  0  0  0  0
   -4.9989   15.5484   -0.3236 H   0  0  0  0  0  0  0  0  0  0  0  0
    0.0954   10.9597   -3.6020 H   0  0  0  0  0  0  0  0  0  0  0  0
   -1.2065   10.3340   -4.7116 H   0  0  0  0  0  0  0  0  0  0  0  0
   -2.9528   10.9815   -3.0269 H   0  0  0  0  0  0  0  0  0  0  0  0
   -1.6500   11.6064   -1.9178 H   0  0  0  0  0  0  0  0  0  0  0  0
   -4.4483   14.2922   -2.7845 H   0  0  0  0  0  0  0  0  0  0  0  0
   -4.0465   15.9831   -2.4325 H   0  0  0  0  0  0  0  0  0  0  0  0
   -2.2548   12.6125   -4.8026 H   0  0  0  0  0  0  0  0  0  0  0  0
   -0.1022   13.9106   -4.4790 H   0  0  0  0  0  0  0  0  0  0  0  0
   -0.0825   13.4024   -2.7888 H   0  0  0  0  0  0  0  0  0  0  0  0
   -0.9891   15.7023   -3.0216 H   0  0  0  0  0  0  0  0  0  0  0  0
   -2.2555   15.1292   -4.1215 H   0  0  0  0  0  0  0  0  0  0  0  0
  1  3  1  0  0  0  0
  1 12  2  0  0  0  0
  2 12  1  0  0  0  0
  2 13  2  0  0  0  0
  3  4  2  0  0  0  0
  3  5  1  0  0  0  0
  4 13  1  0  0  0  0
  4 14  1  0  0  0  0
  5  8  1  0  0  0  0
  6  7  1  0  0  0  0
  6  9  1  0  0  0  0
  7  9  1  0  0  0  0
  8 14  1  0  0  0  0
  9 10  1  0  0  0  0
 10 11  1  0  0  0  0
 11 14  1  0  0  0  0
  1 15  1  0  0  0  0
  2 16  1  0  0  0  0
  5 17  1  0  0  0  0
  5 18  1  0  0  0  0
  6 19  1  0  0  0  0
  6 20  1  0  0  0  0
  7 21  1  0  0  0  0
  7 22  1  0  0  0  0
  8 23  1  0  0  0  0
  8 24  1  0  0  0  0
  9 25  1  0  0  0  0
 10 26  1  0  0  0  0
 10 27  1  0  0  0  0
 11 28  1  0  0  0  0
 11 29  1  0  0  0  0
M  END
> <FRED Chemgauss4 score>
-7.579639

$$$$
MOL0202_6
  -OEChem-06022418023D

 31 33  0     0  0  0  0  0  0999 V2000
   -3.1121   15.2045    1.1742 C   0  0  0  0  0  0  0  0  0  0  0  0
   -0.8675   14.8147    0.9835 C   0  0  0  0  0  0  0  0  0  0  0  0
   -3.2403   15.1036   -0.1876 C   0  0  0  0  0  0  0  0  0  0  0  0
   -2.0925   14.8479   -0.9119 C   0  0  0  0  0  0  0  0  0  0  0  0
   -1.4821   14.5332   -3.2805 C   0  0  0  0  0  0  0  0  0  0  0  0
   -4.4487   15.2273   -1.0455 C   0  0  0  0  0  0  0  0  0  0  0  0
    0.2018   12.1078   -4.6244 C   0  0  0  0  0  0  0  0  0  0  0  0
   -0.0969   11.3027   -3.3724 C   0  0  0  0  0  0  0  0  0  0  0  0
    0.6026   13.4679   -4.0702 C   0  0  0  0  0  0  0  0  0  0  0  0
   -0.8090   12.2908   -2.4540 C   0  0  0  0  0  0  0  0  0  0  0  0
   -3.8596   15.0033   -2.4455 C   0  0  0  0  0  0  0  0  0  0  0  0
   -0.3032   13.6746   -2.8601 C   0  0  0  0  0  0  0  0  0  0  0  0
   -1.9223   15.0625    1.7952 N   0  0  0  0  0  0  0  0  0  0  0  0
   -0.8774   14.6959   -0.3609 N   0  0  0  0  0  0  0  0  0  0  0  0
   -2.4096   14.7772   -2.2825 N   0  0  0  0  0  0  0  0  0  0  0  0
   -1.5561   14.9537   -4.4359 O   0  0  0  0  0  0  0  0  0  0  0  0
   -3.9602   15.4021    1.8190 H   0  0  0  0  0  0  0  0  0  0  0  0
    0.0938   14.6978    1.4696 H   0  0  0  0  0  0  0  0  0  0  0  0
   -5.1871   14.4584   -0.7992 H   0  0  0  0  0  0  0  0  0  0  0  0
   -4.8937   16.2227   -0.9579 H   0  0  0  0  0  0  0  0  0  0  0  0
    0.9920   11.6572   -5.2315 H   0  0  0  0  0  0  0  0  0  0  0  0
   -0.6989   12.1987   -5.2427 H   0  0  0  0  0  0  0  0  0  0  0  0
   -0.7046   10.4172   -3.5799 H   0  0  0  0  0  0  0  0  0  0  0  0
    0.8391   10.9697   -2.9079 H   0  0  0  0  0  0  0  0  0  0  0  0
    1.6463   13.4303   -3.7350 H   0  0  0  0  0  0  0  0  0  0  0  0
    0.5228   14.2536   -4.8280 H   0  0  0  0  0  0  0  0  0  0  0  0
   -1.8959   12.1972   -2.5707 H   0  0  0  0  0  0  0  0  0  0  0  0
   -0.5783   12.0762   -1.4045 H   0  0  0  0  0  0  0  0  0  0  0  0
   -4.3049   14.1301   -2.9352 H   0  0  0  0  0  0  0  0  0  0  0  0
   -4.0156   15.8735   -3.0926 H   0  0  0  0  0  0  0  0  0  0  0  0
    0.1988   14.1882   -2.0611 H   0  0  0  0  0  0  0  0  0  0  0  0
  1  3  1  0  0  0  0
  1 13  2  0  0  0  0
  2 13  1  0  0  0  0
  2 14  2  0  0  0  0
  3  4  2  0  0  0  0
  3  6  1  0  0  0  0
  4 14  1  0  0  0  0
  4 15  1  0  0  0  0
  5 12  1  0  0  0  0
  5 15  1  0  0  0  0
  5 16  2  0  0  0  0
  6 11  1  0  0  0  0
  7  8  1  0  0  0  0
  7  9  1  0  0  0  0
  8 10  1  0  0  0  0
  9 12  1  0  0  0  0
 10 12  1  0  0  0  0
 11 15  1  0  0  0  0
  1 17  1  0  0  0  0
  2 18  1  0  0  0  0
  6 19  1  0  0  0  0
  6 20  1  0  0  0  0
  7 21  1  0  0  0  0
  7 22  1  0  0  0  0
  8 23  1  0  0  0  0
  8 24  1  0  0  0  0
  9 25  1  0  0  0  0
  9 26  1  0  0  0  0
 10 27  1  0  0  0  0
 10 28  1  0  0  0  0
 11 29  1  0  0  0  0
 11 30  1  0  0  0  0
 12 31  1  0  0  0  0
M  END
> <FRED Chemgauss4 score>
-7.545392

$$$$
MOL0115_1
  -OEChem-06022418023D

 17 18  0     0  0  0  0  0  0999 V2000
    2.4951   13.9863   -1.3681 C   0  0  0  0  0  0  0  0  0  0  0  0
    0.5166   14.5661   -3.0387 C   0  0  0  0  0  0  0  0  0  0  0  0
    1.7277   15.2371   -3.0893 C   0  0  0  0  0  0  0  0  0  0  0  0
    0.3625   13.5907   -2.0893 C   0  0  0  0  0  0  0  0  0  0  0  0
   -0.4287   15.1026   -4.0523 C   0  0  0  0  0  0  0  0  0  0  0  0
    0.5013   16.0110   -4.8854 C   0  0  0  0  0  0  0  0  0  0  0  0
    2.7488   14.9696   -2.2590 N   0  0  0  0  0  0  0  0  0  0  0  0
    1.3523   13.2724   -1.2305 N   0  0  0  0  0  0  0  0  0  0  0  0
    1.7104   16.2063   -4.1032 N   0  0  0  0  0  0  0  0  0  0  0  0
   -0.8143   12.9060   -1.9795 O   0  0  0  0  0  0  0  0  0  0  0  0
    3.2978   13.7403   -0.6830 H   0  0  0  0  0  0  0  0  0  0  0  0
   -0.8661   14.3115   -4.6680 H   0  0  0  0  0  0  0  0  0  0  0  0
   -1.2171   15.6871   -3.5675 H   0  0  0  0  0  0  0  0  0  0  0  0
    0.7571   15.5206   -5.8323 H   0  0  0  0  0  0  0  0  0  0  0  0
    0.0197   16.9656   -5.1207 H   0  0  0  0  0  0  0  0  0  0  0  0
    2.5040   16.7698   -4.3658 H   0  0  0  0  0  0  0  0  0  0  0  0
   -0.7544   12.2567   -1.2629 H   0  0  0  0  0  0  0  0  0  0  0  0
  1  7  1  0  0  0  0
  1  8  2  0  0  0  0
  2  3  1  0  0  0  0
  2  4  2  0  0  0  0
  2  5  1  0  0  0  0
  3  7  2  0  0  0  0
  3  9  1  0  0  0  0
  4  8  1  0  0  0  0
  4 10  1  0  0  0  0
  5  6  1  0  0  0  0
  6  9  1  0  0  0  0
  1 11  1  0  0  0  0
  5 12  1  0  0  0  0
  5 13  1  0  0  0  0
  6 14  1  0  0  0  0
  6 15  1  0  0  0  0
  9 16  1  0  0  0  0
 10 17  1  0  0  0  0
M  END
> <FRED Chemgauss4 score>
-7.507122

$$$$
MOL0156_1
  -OEChem-06022418023D

 22 23  0     1  0  0  0  0  0999 V2000
    0.3901   13.4511   -2.5762 C   0  0  0  0  0  0  0  0  0  0  0  0
    2.4102   13.9036   -1.6571 C   0  0  0  0  0  0  0  0  0  0  0  0
    0.3977   14.6469   -3.2767 C   0  0  0  0  0  0  0  0  0  0  0  0
    1.5365   15.4409   -3.1214 C   0  0  0  0  0  0  0  0  0  0  0  0
   -0.6778   16.3778   -4.6064 C   0  0  0  0  0  0  0  0  0  0  0  0
    0.7324   16.8781   -4.9473 C   0  0  1  0  0  0  0  0  0  0  0  0
    0.7197   18.3429   -5.2851 C   0  0  0  0  0  0  0  0  0  0  0  0
    1.3791   13.0495   -1.7541 N   0  0  0  0  0  0  0  0  0  0  0  0
    2.5477   15.0817   -2.2947 N   0  0  0  0  0  0  0  0  0  0  0  0
   -0.6385   15.0134   -4.1153 N   0  0  0  0  0  0  0  0  0  0  0  0
    1.6355   16.6351   -3.8311 N   0  0  0  0  0  0  0  0  0  0  0  0
    1.8970   18.6494   -6.0101 O   0  0  0  0  0  0  0  0  0  0  0  0
   -0.4441   12.7599   -2.6527 H   0  0  0  0  0  0  0  0  0  0  0  0
    3.2195   13.6143   -0.9980 H   0  0  0  0  0  0  0  0  0  0  0  0
   -1.1406   17.0184   -3.8448 H   0  0  0  0  0  0  0  0  0  0  0  0
   -1.3182   16.4214   -5.4945 H   0  0  0  0  0  0  0  0  0  0  0  0
    1.1045   16.3150   -5.8200 H   0  0  0  0  0  0  0  0  0  0  0  0
    0.6957   18.9363   -4.3707 H   0  0  0  0  0  0  0  0  0  0  0  0
   -0.1513   18.5771   -5.8978 H   0  0  0  0  0  0  0  0  0  0  0  0
   -1.4788   14.4488   -4.1457 H   0  0  0  0  0  0  0  0  0  0  0  0
    2.4851   17.1776   -3.7320 H   0  0  0  0  0  0  0  0  0  0  0  0
    1.8659   19.5991   -6.2164 H   0  0  0  0  0  0  0  0  0  0  0  0
  1  3  1  0  0  0  0
  1  8  2  0  0  0  0
  2  8  1  0  0  0  0
  2  9  2  0  0  0  0
  3  4  2  0  0  0  0
  3 10  1  0  0  0  0
  4  9  1  0  0  0  0
  4 11  1  0  0  0  0
  5  6  1  0  0  0  0
  5 10  1  0  0  0  0
  6  7  1  0  0  0  0
  6 11  1  0  0  0  0
  7 12  1  0  0  0  0
  1 13  1  0  0  0  0
  2 14  1  0  0  0  0
  5 15  1  0  0  0  0
  5 16  1  0  0  0  0
  6 17  1  0  0  0  0
  7 18  1  0  0  0  0
  7 19  1  0  0  0  0
 10 20  1  0  0  0  0
 11 21  1  0  0  0  0
 12 22  1  0  0  0  0
M  END
> <FRED Chemgauss4 score>
-7.497193

$$$$
MOL0183_2
  -OEChem-06022418023D

 31 32  0     1  0  0  0  0  0999 V2000
   -2.5569   14.9518    1.5187 C   0  0  0  0  0  0  0  0  0  0  0  0
   -0.2905   14.8053    1.2740 C   0  0  0  0  0  0  0  0  0  0  0  0
   -2.6986   14.8208    0.1623 C   0  0  0  0  0  0  0  0  0  0  0  0
   -1.5518   14.6681   -0.6046 C   0  0  0  0  0  0  0  0  0  0  0  0
   -3.9153   14.7738   -0.6904 C   0  0  0  0  0  0  0  0  0  0  0  0
   -3.2908   14.9201   -2.0930 C   0  0  0  0  0  0  0  0  0  0  0  0
    0.3307   13.4705   -4.8316 C   0  0  0  0  0  0  0  0  0  0  0  0
    1.1331   13.3187   -2.4576 C   0  0  0  0  0  0  0  0  0  0  0  0
   -1.0091   12.2202   -3.1288 C   0  0  0  0  0  0  0  0  0  0  0  0
   -0.9170   14.7160   -3.0074 C   0  0  0  0  0  0  0  0  0  0  0  0
   -0.1075   13.4476   -3.3576 C   0  0  0  0  0  0  0  0  0  0  0  0
   -1.3454   14.9509    2.1099 N   0  0  0  0  0  0  0  0  0  0  0  0
   -0.3183   14.6600   -0.0688 N   0  0  0  0  0  0  0  0  0  0  0  0
   -1.8902   14.5274   -1.9636 N   0  0  1  0  0  0  0  0  0  0  0  0
   -3.4072   15.0629    2.1805 H   0  0  0  0  0  0  0  0  0  0  0  0
    0.6897   14.8079    1.7360 H   0  0  0  0  0  0  0  0  0  0  0  0
   -4.4568   13.8289   -0.5912 H   0  0  0  0  0  0  0  0  0  0  0  0
   -4.5742   15.6172   -0.4606 H   0  0  0  0  0  0  0  0  0  0  0  0
   -3.7987   14.2486   -2.7977 H   0  0  0  0  0  0  0  0  0  0  0  0
   -3.3919   15.9432   -2.4703 H   0  0  0  0  0  0  0  0  0  0  0  0
   -0.5336   13.5618   -5.4990 H   0  0  0  0  0  0  0  0  0  0  0  0
    1.0044   14.3089   -5.0392 H   0  0  0  0  0  0  0  0  0  0  0  0
    0.8615   12.5498   -5.0994 H   0  0  0  0  0  0  0  0  0  0  0  0
    0.8507   13.2997   -1.3986 H   0  0  0  0  0  0  0  0  0  0  0  0
    1.6889   12.3975   -2.6613 H   0  0  0  0  0  0  0  0  0  0  0  0
    1.8163   14.1627   -2.6038 H   0  0  0  0  0  0  0  0  0  0  0  0
   -1.3463   12.1633   -2.0877 H   0  0  0  0  0  0  0  0  0  0  0  0
   -0.4767   11.2898   -3.3567 H   0  0  0  0  0  0  0  0  0  0  0  0
   -1.9001   12.2598   -3.7656 H   0  0  0  0  0  0  0  0  0  0  0  0
   -1.4601   15.0870   -3.8838 H   0  0  0  0  0  0  0  0  0  0  0  0
   -0.2476   15.5158   -2.6705 H   0  0  0  0  0  0  0  0  0  0  0  0
  1  3  1  0  0  0  0
  1 12  2  0  0  0  0
  2 12  1  0  0  0  0
  2 13  2  0  0  0  0
  3  4  2  0  0  0  0
  3  5  1  0  0  0  0
  4 13  1  0  0  0  0
  4 14  1  0  0  0  0
  5  6  1  0  0  0  0
  6 14  1  0  0  0  0
  7 11  1  0  0  0  0
  8 11  1  0  0  0  0
  9 11  1  0  0  0  0
 10 11  1  0  0  0  0
 10 14  1  0  0  0  0
  1 15  1  0  0  0  0
  2 16  1  0  0  0  0
  5 17  1  0  0  0  0
  5 18  1  0  0  0  0
  6 19  1  0  0  0  0
  6 20  1  0  0  0  0
  7 21  1  0  0  0  0
  7 22  1  0  0  0  0
  7 23  1  0  0  0  0
  8 24  1  0  0  0  0
  8 25  1  0  0  0  0
  8 26  1  0  0  0  0
  9 27  1  0  0  0  0
  9 28  1  0  0  0  0
  9 29  1  0  0  0  0
 10 30  1  0  0  0  0
 10 31  1  0  0  0  0
M  END
> <FRED Chemgauss4 score>
-7.496221

$$$$
MOL0070_1
  -OEChem-06022418023D

 21 22  0     1  0  0  0  0  0999 V2000
    0.1565   13.7561   -1.9662 C   0  0  0  0  0  0  0  0  0  0  0  0
    2.3568   13.7701   -1.4279 C   0  0  0  0  0  0  0  0  0  0  0  0
    0.3017   14.8880   -2.7525 C   0  0  0  0  0  0  0  0  0  0  0  0
    1.5966   15.4031   -2.8510 C   0  0  0  0  0  0  0  0  0  0  0  0
    0.8223   16.8872   -4.6388 C   0  0  0  0  0  0  0  0  0  0  0  0
   -0.5868   16.7574   -4.0479 C   0  0  1  0  0  0  0  0  0  0  0  0
   -1.6489   16.9629   -5.1225 C   0  0  0  0  0  0  0  0  0  0  0  0
    1.1629   13.1727   -1.2863 N   0  0  0  0  0  0  0  0  0  0  0  0
    2.6342   14.8569   -2.1729 N   0  0  0  0  0  0  0  0  0  0  0  0
   -0.7623   15.4461   -3.4389 N   0  0  0  0  0  0  0  0  0  0  0  0
    1.8256   16.5120   -3.6608 N   0  0  0  0  0  0  0  0  0  0  0  0
   -0.8090   13.2725   -1.8497 H   0  0  0  0  0  0  0  0  0  0  0  0
    3.1863   13.3305   -0.8879 H   0  0  0  0  0  0  0  0  0  0  0  0
    0.9306   16.2505   -5.5261 H   0  0  0  0  0  0  0  0  0  0  0  0
    1.0028   17.9191   -4.9602 H   0  0  0  0  0  0  0  0  0  0  0  0
   -0.7225   17.5232   -3.2730 H   0  0  0  0  0  0  0  0  0  0  0  0
   -1.5355   16.2134   -5.9052 H   0  0  0  0  0  0  0  0  0  0  0  0
   -1.5449   17.9541   -5.5629 H   0  0  0  0  0  0  0  0  0  0  0  0
   -2.6427   16.8714   -4.6850 H   0  0  0  0  0  0  0  0  0  0  0  0
   -1.6976   15.1030   -3.2544 H   0  0  0  0  0  0  0  0  0  0  0  0
    2.7718   16.8625   -3.7423 H   0  0  0  0  0  0  0  0  0  0  0  0
  1  3  1  0  0  0  0
  1  8  2  0  0  0  0
  2  8  1  0  0  0  0
  2  9  2  0  0  0  0
  3  4  2  0  0  0  0
  3 10  1  0  0  0  0
  4  9  1  0  0  0  0
  4 11  1  0  0  0  0
  5  6  1  0  0  0  0
  5 11  1  0  0  0  0
  6  7  1  0  0  0  0
  6 10  1  0  0  0  0
  1 12  1  0  0  0  0
  2 13  1  0  0  0  0
  5 14  1  0  0  0  0
  5 15  1  0  0  0  0
  6 16  1  0  0  0  0
  7 17  1  0  0  0  0
  7 18  1  0  0  0  0
  7 19  1  0  0  0  0
 10 20  1  0  0  0  0
 11 21  1  0  0  0  0
M  END
> <FRED Chemgauss4 score>
-7.428955

$$$$
MOL0134_2
  -OEChem-06022418023D

 23 25  0     1  0  0  0  0  0999 V2000
    2.2063   15.3495   -3.1726 C   0  0  0  0  0  0  0  0  0  0  0  0
    2.6809   13.8802   -1.4889 C   0  0  0  0  0  0  0  0  0  0  0  0
    0.9992   14.7279   -3.3588 C   0  0  0  0  0  0  0  0  0  0  0  0
    0.6933   13.6504   -2.5463 C   0  0  0  0  0  0  0  0  0  0  0  0
   -0.0929   14.9964   -4.3334 C   0  0  0  0  0  0  0  0  0  0  0  0
   -3.3284   13.8637   -2.4655 C   0  0  0  0  0  0  0  0  0  0  0  0
   -2.5216   15.0310   -1.9694 C   0  0  0  0  0  0  0  0  0  0  0  0
   -2.4183   14.6028   -3.4070 C   0  0  0  0  0  0  0  0  0  0  0  0
   -1.1625   13.9515   -3.9137 C   0  0  2  0  0  0  0  0  0  0  0  0
    3.0791   14.9415   -2.2291 N   0  0  0  0  0  0  0  0  0  0  0  0
    1.5210   13.1955   -1.5910 N   0  0  0  0  0  0  0  0  0  0  0  0
   -0.5664   13.1321   -2.8655 N   0  0  0  0  0  0  0  0  0  0  0  0
    2.5183   16.1957   -3.7728 H   0  0  0  0  0  0  0  0  0  0  0  0
    3.3733   13.5411   -0.7274 H   0  0  0  0  0  0  0  0  0  0  0  0
   -0.4498   16.0278   -4.2538 H   0  0  0  0  0  0  0  0  0  0  0  0
    0.2605   14.7986   -5.3508 H   0  0  0  0  0  0  0  0  0  0  0  0
   -3.0390   12.8742   -2.1338 H   0  0  0  0  0  0  0  0  0  0  0  0
   -4.3960   14.0028   -2.5838 H   0  0  0  0  0  0  0  0  0  0  0  0
   -3.0480   15.9531   -1.7551 H   0  0  0  0  0  0  0  0  0  0  0  0
   -1.6918   14.8234   -1.3051 H   0  0  0  0  0  0  0  0  0  0  0  0
   -2.8777   15.2376   -4.1551 H   0  0  0  0  0  0  0  0  0  0  0  0
   -1.4180   13.3201   -4.7730 H   0  0  0  0  0  0  0  0  0  0  0  0
   -1.0062   12.3572   -2.3937 H   0  0  0  0  0  0  0  0  0  0  0  0
  1  3  1  0  0  0  0
  1 10  2  0  0  0  0
  2 10  1  0  0  0  0
  2 11  2  0  0  0  0
  3  4  2  0  0  0  0
  3  5  1  0  0  0  0
  4 11  1  0  0  0  0
  4 12  1  0  0  0  0
  5  9  1  0  0  0  0
  6  7  1  0  0  0  0
  6  8  1  0  0  0  0
  7  8  1  0  0  0  0
  8  9  1  0  0  0  0
  9 12  1  0  0  0  0
  1 13  1  0  0  0  0
  2 14  1  0  0  0  0
  5 15  1  0  0  0  0
  5 16  1  0  0  0  0
  6 17  1  0  0  0  0
  6 18  1  0  0  0  0
  7 19  1  0  0  0  0
  7 20  1  0  0  0  0
  8 21  1  0  0  0  0
  9 22  1  0  0  0  0
 12 23  1  0  0  0  0
M  END
> <FRED Chemgauss4 score>
-7.421066

$$$$
MOL0203_9
  -OEChem-06022418023D

 28 30  0     0  0  0  0  0  0999 V2000
   -2.8642   14.8085    1.3624 C   0  0  0  0  0  0  0  0  0  0  0  0
   -0.5931   14.9522    1.1432 C   0  0  0  0  0  0  0  0  0  0  0  0
   -2.9833   14.6930    0.0009 C   0  0  0  0  0  0  0  0  0  0  0  0
   -1.8171   14.7174   -0.7386 C   0  0  0  0  0  0  0  0  0  0  0  0
   -1.1816   14.5745   -3.1171 C   0  0  0  0  0  0  0  0  0  0  0  0
   -4.1987   14.5406   -0.8425 C   0  0  0  0  0  0  0  0  0  0  0  0
    2.6356   14.3212   -3.6339 C   0  0  0  0  0  0  0  0  0  0  0  0
    1.7255   13.3263   -4.2986 C   0  0  0  0  0  0  0  0  0  0  0  0
   -3.5922   14.4722   -2.2513 C   0  0  0  0  0  0  0  0  0  0  0  0
    1.1819   14.6489   -3.8340 C   0  0  0  0  0  0  0  0  0  0  0  0
    0.2469   14.7125   -2.6513 C   0  0  0  0  0  0  0  0  0  0  0  0
   -1.6659   14.9409    1.9690 N   0  0  0  0  0  0  0  0  0  0  0  0
   -0.5929   14.8466   -0.2024 N   0  0  0  0  0  0  0  0  0  0  0  0
   -2.1272   14.5875   -2.1064 N   0  0  0  0  0  0  0  0  0  0  0  0
   -1.4289   14.4620   -4.3186 O   0  0  0  0  0  0  0  0  0  0  0  0
   -3.7264   14.7979    2.0185 H   0  0  0  0  0  0  0  0  0  0  0  0
    0.3754   15.0572    1.6175 H   0  0  0  0  0  0  0  0  0  0  0  0
   -4.7352   13.6191   -0.5975 H   0  0  0  0  0  0  0  0  0  0  0  0
   -4.8613   15.4047   -0.7383 H   0  0  0  0  0  0  0  0  0  0  0  0
    2.9837   14.0952   -2.6336 H   0  0  0  0  0  0  0  0  0  0  0  0
    3.3583   14.8364   -4.2547 H   0  0  0  0  0  0  0  0  0  0  0  0
    1.8376   13.1746   -5.3652 H   0  0  0  0  0  0  0  0  0  0  0  0
    1.4641   12.4339   -3.7435 H   0  0  0  0  0  0  0  0  0  0  0  0
   -3.8290   13.5240   -2.7465 H   0  0  0  0  0  0  0  0  0  0  0  0
   -3.9543   15.2882   -2.8862 H   0  0  0  0  0  0  0  0  0  0  0  0
    0.9319   15.3835   -4.5900 H   0  0  0  0  0  0  0  0  0  0  0  0
    0.3335   15.6634   -2.1282 H   0  0  0  0  0  0  0  0  0  0  0  0
    0.4397   13.8999   -1.9526 H   0  0  0  0  0  0  0  0  0  0  0  0
  1  3  1  0  0  0  0
  1 12  2  0  0  0  0
  2 12  1  0  0  0  0
  2 13  2  0  0  0  0
  3  4  2  0  0  0  0
  3  6  1  0  0  0  0
  4 13  1  0  0  0  0
  4 14  1  0  0  0  0
  5 11  1  0  0  0  0
  5 14  1  0  0  0  0
  5 15  2  0  0  0  0
  6  9  1  0  0  0  0
  7  8  1  0  0  0  0
  7 10  1  0  0  0  0
  8 10  1  0  0  0  0
  9 14  1  0  0  0  0
 10 11  1  0  0  0  0
  1 16  1  0  0  0  0
  2 17  1  0  0  0  0
  6 18  1  0  0  0  0
  6 19  1  0  0  0  0
  7 20  1  0  0  0  0
  7 21  1  0  0  0  0
  8 22  1  0  0  0  0
  8 23  1  0  0  0  0
  9 24  1  0  0  0  0
  9 25  1  0  0  0  0
 10 26  1  0  0  0  0
 11 27  1  0  0  0  0
 11 28  1  0  0  0  0
M  END
> <FRED Chemgauss4 score>
-7.395692

$$$$
MOL0132_1
  -OEChem-06022418023D

 26 28  0     1  0  0  0  0  0999 V2000
    2.0621   15.3510   -3.0853 C   0  0  0  0  0  0  0  0  0  0  0  0
    2.7624   14.0670   -1.3303 C   0  0  0  0  0  0  0  0  0  0  0  0
    0.8689   14.6768   -3.0870 C   0  0  0  0  0  0  0  0  0  0  0  0
    0.6902   13.6738   -2.1506 C   0  0  0  0  0  0  0  0  0  0  0  0
   -0.3251   14.8153   -3.9643 C   0  0  0  0  0  0  0  0  0  0  0  0
   -4.6452   14.6690   -2.8433 C   0  0  0  0  0  0  0  0  0  0  0  0
   -3.6952   13.5715   -2.3207 C   0  0  0  0  0  0  0  0  0  0  0  0
   -3.5064   15.1058   -3.7880 C   0  0  0  0  0  0  0  0  0  0  0  0
   -2.5201   14.4797   -2.7680 C   0  0  0  0  0  0  0  0  0  0  0  0
   -1.3037   13.7829   -3.3409 C   0  0  2  0  0  0  0  0  0  0  0  0
    3.0408   15.0637   -2.2033 N   0  0  0  0  0  0  0  0  0  0  0  0
    1.6272   13.3396   -1.2479 N   0  0  0  0  0  0  0  0  0  0  0  0
   -0.5727   13.0878   -2.2883 N   0  0  0  0  0  0  0  0  0  0  0  0
    2.2779   16.1444   -3.7906 H   0  0  0  0  0  0  0  0  0  0  0  0
    3.5406   13.8253   -0.6161 H   0  0  0  0  0  0  0  0  0  0  0  0
   -0.7136   15.8381   -3.9452 H   0  0  0  0  0  0  0  0  0  0  0  0
   -0.0666   14.5301   -4.9894 H   0  0  0  0  0  0  0  0  0  0  0  0
   -5.5584   14.3169   -3.3291 H   0  0  0  0  0  0  0  0  0  0  0  0
   -4.9067   15.4211   -2.0901 H   0  0  0  0  0  0  0  0  0  0  0  0
   -3.7553   13.3661   -1.2488 H   0  0  0  0  0  0  0  0  0  0  0  0
   -3.7749   12.6259   -2.8698 H   0  0  0  0  0  0  0  0  0  0  0  0
   -3.5316   14.6061   -4.7635 H   0  0  0  0  0  0  0  0  0  0  0  0
   -3.4075   16.1832   -3.9431 H   0  0  0  0  0  0  0  0  0  0  0  0
   -2.2340   15.1954   -1.9823 H   0  0  0  0  0  0  0  0  0  0  0  0
   -1.6239   13.0651   -4.1052 H   0  0  0  0  0  0  0  0  0  0  0  0
   -0.9321   12.3502   -1.7027 H   0  0  0  0  0  0  0  0  0  0  0  0
  1  3  1  0  0  0  0
  1 11  2  0  0  0  0
  2 11  1  0  0  0  0
  2 12  2  0  0  0  0
  3  4  2  0  0  0  0
  3  5  1  0  0  0  0
  4 12  1  0  0  0  0
  4 13  1  0  0  0  0
  5 10  1  0  0  0  0
  6  7  1  0  0  0  0
  6  8  1  0  0  0  0
  7  9  1  0  0  0  0
  8  9  1  0  0  0  0
  9 10  1  0  0  0  0
 10 13  1  0  0  0  0
  1 14  1  0  0  0  0
  2 15  1  0  0  0  0
  5 16  1  0  0  0  0
  5 17  1  0  0  0  0
  6 18  1  0  0  0  0
  6 19  1  0  0  0  0
  7 20  1  0  0  0  0
  7 21  1  0  0  0  0
  8 22  1  0  0  0  0
  8 23  1  0  0  0  0
  9 24  1  0  0  0  0
 10 25  1  0  0  0  0
 13 26  1  0  0  0  0
M  END
> <FRED Chemgauss4 score>
-7.364604

$$$$
MOL0157_1
  -OEChem-06022418023D

 21 22  0     0  0  0  0  0  0999 V2000
    2.0138   14.1942   -1.2338 C   0  0  0  0  0  0  0  0  0  0  0  0
    0.3785   14.7390   -3.2969 C   0  0  0  0  0  0  0  0  0  0  0  0
    0.0382   13.8176   -2.3119 C   0  0  0  0  0  0  0  0  0  0  0  0
    1.6006   15.3687   -3.1341 C   0  0  0  0  0  0  0  0  0  0  0  0
   -0.5558   15.0793   -4.4200 C   0  0  0  0  0  0  0  0  0  0  0  0
   -1.2590   13.0596   -2.4153 C   0  0  0  0  0  0  0  0  0  0  0  0
   -2.2537   13.7366   -3.3617 C   0  0  0  0  0  0  0  0  0  0  0  0
    0.8489   13.5197   -1.2715 N   0  0  0  0  0  0  0  0  0  0  0  0
    2.4456   15.1158   -2.1140 N   0  0  0  0  0  0  0  0  0  0  0  0
   -1.6125   14.0805   -4.6343 N   0  0  0  0  0  0  0  0  0  0  0  0
    2.0059   16.3298   -4.0923 N   0  0  0  0  0  0  0  0  0  0  0  0
    2.6743   13.9705   -0.4050 H   0  0  0  0  0  0  0  0  0  0  0  0
   -1.0524   16.0386   -4.2258 H   0  0  0  0  0  0  0  0  0  0  0  0
    0.0222   15.1943   -5.3471 H   0  0  0  0  0  0  0  0  0  0  0  0
   -1.0624   12.0399   -2.7633 H   0  0  0  0  0  0  0  0  0  0  0  0
   -1.6918   12.9914   -1.4102 H   0  0  0  0  0  0  0  0  0  0  0  0
   -3.1224   13.0871   -3.5441 H   0  0  0  0  0  0  0  0  0  0  0  0
   -2.6428   14.6500   -2.8928 H   0  0  0  0  0  0  0  0  0  0  0  0
   -2.3121   14.4636   -5.2680 H   0  0  0  0  0  0  0  0  0  0  0  0
    1.4240   16.4951   -4.8849 H   0  0  0  0  0  0  0  0  0  0  0  0
    2.9057   16.7497   -4.0024 H   0  0  0  0  0  0  0  0  0  0  0  0
  1  8  1  0  0  0  0
  1  9  2  0  0  0  0
  2  3  1  0  0  0  0
  2  4  2  0  0  0  0
  2  5  1  0  0  0  0
  3  6  1  0  0  0  0
  3  8  2  0  0  0  0
  4  9  1  0  0  0  0
  4 11  1  0  0  0  0
  5 10  1  0  0  0  0
  6  7  1  0  0  0  0
  7 10  1  0  0  0  0
  1 12  1  0  0  0  0
  5 13  1  0  0  0  0
  5 14  1  0  0  0  0
  6 15  1  0  0  0  0
  6 16  1  0  0  0  0
  7 17  1  0  0  0  0
  7 18  1  0  0  0  0
 10 19  1  0  0  0  0
 11 20  1  0  0  0  0
 11 21  1  0  0  0  0
M  END
> <FRED Chemgauss4 score>
-7.359285

$$$$
MOL0167_6
  -OEChem-06022418023D

 28 30  0     0  0  0  0  0  0999 V2000
   -3.0390   15.0146    1.2324 C   0  0  0  0  0  0  0  0  0  0  0  0
   -0.7980   15.1620    0.8047 C   0  0  0  0  0  0  0  0  0  0  0  0
   -3.2663   14.7181   -0.0873 C   0  0  0  0  0  0  0  0  0  0  0  0
   -2.1657   14.6619   -0.9197 C   0  0  0  0  0  0  0  0  0  0  0  0
   -1.7238   14.2151   -3.3044 C   0  0  0  0  0  0  0  0  0  0  0  0
   -4.5423   14.4373   -0.7976 C   0  0  0  0  0  0  0  0  0  0  0  0
    1.6041   15.2832   -3.7561 C   0  0  0  0  0  0  0  0  0  0  0  0
    0.8486   14.3970   -2.7484 C   0  0  0  0  0  0  0  0  0  0  0  0
    0.2900   15.3727   -4.5544 C   0  0  0  0  0  0  0  0  0  0  0  0
   -4.0518   14.1921   -2.2316 C   0  0  0  0  0  0  0  0  0  0  0  0
   -0.4605   15.0764   -3.2293 C   0  0  0  0  0  0  0  0  0  0  0  0
   -1.7988   15.2441    1.7128 N   0  0  0  0  0  0  0  0  0  0  0  0
   -0.9054   14.8792   -0.5106 N   0  0  0  0  0  0  0  0  0  0  0  0
   -2.5833   14.3475   -2.2277 N   0  0  0  0  0  0  0  0  0  0  0  0
   -1.9093   13.4780   -4.2738 O   0  0  0  0  0  0  0  0  0  0  0  0
   -3.8439   15.0790    1.9548 H   0  0  0  0  0  0  0  0  0  0  0  0
    0.2029   15.3445    1.1774 H   0  0  0  0  0  0  0  0  0  0  0  0
   -5.0328   13.5484   -0.3896 H   0  0  0  0  0  0  0  0  0  0  0  0
   -5.2167   15.2975   -0.7515 H   0  0  0  0  0  0  0  0  0  0  0  0
    1.9332   16.2421   -3.3398 H   0  0  0  0  0  0  0  0  0  0  0  0
    2.4434   14.8098   -4.2713 H   0  0  0  0  0  0  0  0  0  0  0  0
    0.9105   13.3245   -2.9687 H   0  0  0  0  0  0  0  0  0  0  0  0
    1.1043   14.5578   -1.6974 H   0  0  0  0  0  0  0  0  0  0  0  0
    0.0807   16.3459   -5.0070 H   0  0  0  0  0  0  0  0  0  0  0  0
    0.1833   14.5948   -5.3200 H   0  0  0  0  0  0  0  0  0  0  0  0
   -4.3031   13.1835   -2.5785 H   0  0  0  0  0  0  0  0  0  0  0  0
   -4.4845   14.9118   -2.9356 H   0  0  0  0  0  0  0  0  0  0  0  0
   -0.6811   15.9909   -2.6671 H   0  0  0  0  0  0  0  0  0  0  0  0
  1  3  1  0  0  0  0
  1 12  2  0  0  0  0
  2 12  1  0  0  0  0
  2 13  2  0  0  0  0
  3  4  2  0  0  0  0
  3  6  1  0  0  0  0
  4 13  1  0  0  0  0
  4 14  1  0  0  0  0
  5 11  1  0  0  0  0
  5 14  1  0  0  0  0
  5 15  2  0  0  0  0
  6 10  1  0  0  0  0
  7  8  1  0  0  0  0
  7  9  1  0  0  0  0
  8 11  1  0  0  0  0
  9 11  1  0  0  0  0
 10 14  1  0  0  0  0
  1 16  1  0  0  0  0
  2 17  1  0  0  0  0
  6 18  1  0  0  0  0
  6 19  1  0  0  0  0
  7 20  1  0  0  0  0
  7 21  1  0  0  0  0
  8 22  1  0  0  0  0
  8 23  1  0  0  0  0
  9 24  1  0  0  0  0
  9 25  1  0  0  0  0
 10 26  1  0  0  0  0
 10 27  1  0  0  0  0
 11 28  1  0  0  0  0
M  END
> <FRED Chemgauss4 score>
-7.351246

$$$$
MOL0135_2
  -OEChem-06022418023D

 22 23  0     1  0  0  0  0  0999 V2000
   -2.6185   15.0214    1.3210 C   0  0  0  0  0  0  0  0  0  0  0  0
   -0.3597   14.9753    0.9840 C   0  0  0  0  0  0  0  0  0  0  0  0
   -2.8087   14.7121   -0.0002 C   0  0  0  0  0  0  0  0  0  0  0  0
   -1.6881   14.5547   -0.8041 C   0  0  0  0  0  0  0  0  0  0  0  0
   -4.0554   14.5364   -0.7902 C   0  0  0  0  0  0  0  0  0  0  0  0
   -3.4919   13.9141   -2.0841 C   0  0  0  0  0  0  0  0  0  0  0  0
   -1.1501   13.7016   -3.0760 C   0  0  0  0  0  0  0  0  0  0  0  0
   -0.2739   14.7625   -3.6929 C   0  0  0  0  0  0  0  0  0  0  0  0
   -1.3853   15.1576    1.8485 N   0  0  0  0  0  0  0  0  0  0  0  0
   -0.4350   14.6790   -0.3320 N   0  0  0  0  0  0  0  0  0  0  0  0
   -2.0743   14.2627   -2.1256 N   0  0  2  0  0  0  0  0  0  0  0  0
    0.5850   14.2101   -4.5781 F   0  0  0  0  0  0  0  0  0  0  0  0
   -1.0064   15.6838   -4.3543 F   0  0  0  0  0  0  0  0  0  0  0  0
    0.4589   15.4023   -2.7569 F   0  0  0  0  0  0  0  0  0  0  0  0
   -3.4455   15.1718    2.0041 H   0  0  0  0  0  0  0  0  0  0  0  0
    0.6372   15.0818    1.3952 H   0  0  0  0  0  0  0  0  0  0  0  0
   -4.7667   13.8649   -0.3013 H   0  0  0  0  0  0  0  0  0  0  0  0
   -4.5209   15.5071   -0.9880 H   0  0  0  0  0  0  0  0  0  0  0  0
   -3.6027   12.8222   -2.0502 H   0  0  0  0  0  0  0  0  0  0  0  0
   -4.0253   14.2794   -2.9680 H   0  0  0  0  0  0  0  0  0  0  0  0
   -0.5442   12.9581   -2.5498 H   0  0  0  0  0  0  0  0  0  0  0  0
   -1.7360   13.1895   -3.8449 H   0  0  0  0  0  0  0  0  0  0  0  0
  1  3  1  0  0  0  0
  1  9  2  0  0  0  0
  2  9  1  0  0  0  0
  2 10  2  0  0  0  0
  3  4  2  0  0  0  0
  3  5  1  0  0  0  0
  4 10  1  0  0  0  0
  4 11  1  0  0  0  0
  5  6  1  0  0  0  0
  6 11  1  0  0  0  0
  7  8  1  0  0  0  0
  7 11  1  0  0  0  0
  8 12  1  0  0  0  0
  8 13  1  0  0  0  0
  8 14  1  0  0  0  0
  1 15  1  0  0  0  0
  2 16  1  0  0  0  0
  5 17  1  0  0  0  0
  5 18  1  0  0  0  0
  6 19  1  0  0  0  0
  6 20  1  0  0  0  0
  7 21  1  0  0  0  0
  7 22  1  0  0  0  0
M  END
> <FRED Chemgauss4 score>
-7.349127

$$$$
MOL0042_2
  -OEChem-06022418023D

 26 28  0     1  0  0  0  0  0999 V2000
   -2.3040   14.9816    1.3604 C   0  0  0  0  0  0  0  0  0  0  0  0
   -0.0522   14.6221    1.2249 C   0  0  0  0  0  0  0  0  0  0  0  0
   -2.3888   14.8814   -0.0034 C   0  0  0  0  0  0  0  0  0  0  0  0
   -1.2204   14.6544   -0.7176 C   0  0  0  0  0  0  0  0  0  0  0  0
   -3.5522   15.0103   -0.9195 C   0  0  0  0  0  0  0  0  0  0  0  0
   -0.4309   12.4638   -4.4654 C   0  0  0  0  0  0  0  0  0  0  0  0
   -1.1723   13.8175   -4.4348 C   0  0  0  0  0  0  0  0  0  0  0  0
   -0.4691   12.4927   -2.9224 C   0  0  0  0  0  0  0  0  0  0  0  0
   -2.9442   14.4806   -2.2344 C   0  0  0  0  0  0  0  0  0  0  0  0
   -0.5622   14.0306   -3.0320 C   0  0  0  0  0  0  0  0  0  0  0  0
   -1.1305   14.8504    2.0109 N   0  0  0  0  0  0  0  0  0  0  0  0
   -0.0228   14.5157   -0.1216 N   0  0  0  0  0  0  0  0  0  0  0  0
   -1.4954   14.6023   -2.0969 N   0  0  2  0  0  0  0  0  0  0  0  0
   -3.1717   15.1703    1.9808 H   0  0  0  0  0  0  0  0  0  0  0  0
    0.8973   14.5137    1.7354 H   0  0  0  0  0  0  0  0  0  0  0  0
   -4.4025   14.4017   -0.5999 H   0  0  0  0  0  0  0  0  0  0  0  0
   -3.8480   16.0598   -1.0148 H   0  0  0  0  0  0  0  0  0  0  0  0
   -0.9661   11.6380   -4.9402 H   0  0  0  0  0  0  0  0  0  0  0  0
    0.5808   12.5240   -4.8831 H   0  0  0  0  0  0  0  0  0  0  0  0
   -0.8663   14.5365   -5.1994 H   0  0  0  0  0  0  0  0  0  0  0  0
   -2.2643   13.7172   -4.4583 H   0  0  0  0  0  0  0  0  0  0  0  0
   -1.3531   12.0006   -2.4989 H   0  0  0  0  0  0  0  0  0  0  0  0
    0.4241   12.1058   -2.4245 H   0  0  0  0  0  0  0  0  0  0  0  0
   -3.2127   13.4252   -2.3728 H   0  0  0  0  0  0  0  0  0  0  0  0
   -3.3206   15.0405   -3.0974 H   0  0  0  0  0  0  0  0  0  0  0  0
    0.4052   14.5448   -3.0315 H   0  0  0  0  0  0  0  0  0  0  0  0
  1  3  1  0  0  0  0
  1 11  2  0  0  0  0
  2 11  1  0  0  0  0
  2 12  2  0  0  0  0
  3  4  2  0  0  0  0
  3  5  1  0  0  0  0
  4 12  1  0  0  0  0
  4 13  1  0  0  0  0
  5  9  1  0  0  0  0
  6  7  1  0  0  0  0
  6  8  1  0  0  0  0
  7 10  1  0  0  0  0
  8 10  1  0  0  0  0
  9 13  1  0  0  0  0
 10 13  1  0  0  0  0
  1 14  1  0  0  0  0
  2 15  1  0  0  0  0
  5 16  1  0  0  0  0
  5 17  1  0  0  0  0
  6 18  1  0  0  0  0
  6 19  1  0  0  0  0
  7 20  1  0  0  0  0
  7 21  1  0  0  0  0
  8 22  1  0  0  0  0
  8 23  1  0  0  0  0
  9 24  1  0  0  0  0
  9 25  1  0  0  0  0
 10 26  1  0  0  0  0
M  END
> <FRED Chemgauss4 score>
-7.337170

$$$$
MOL0026_1
  -OEChem-06022418023D

 18 19  0     0  0  0  0  0  0999 V2000
    2.4704   14.0562   -1.4154 C   0  0  0  0  0  0  0  0  0  0  0  0
    0.5259   14.7576   -3.0792 C   0  0  0  0  0  0  0  0  0  0  0  0
    0.3912   13.6779   -2.2214 C   0  0  0  0  0  0  0  0  0  0  0  0
    1.7037   15.4564   -3.0513 C   0  0  0  0  0  0  0  0  0  0  0  0
   -0.6852   14.9152   -3.9262 C   0  0  0  0  0  0  0  0  0  0  0  0
   -1.6602   13.9268   -3.2506 C   0  0  0  0  0  0  0  0  0  0  0  0
    1.3550   13.2955   -1.3680 N   0  0  0  0  0  0  0  0  0  0  0  0
    2.7069   15.1248   -2.2132 N   0  0  0  0  0  0  0  0  0  0  0  0
   -0.8622   13.0708   -2.3889 N   0  0  0  0  0  0  0  0  0  0  0  0
    1.8686   16.5503   -3.9293 N   0  0  0  0  0  0  0  0  0  0  0  0
    3.2695   13.7801   -0.7374 H   0  0  0  0  0  0  0  0  0  0  0  0
   -1.0781   15.9358   -3.9019 H   0  0  0  0  0  0  0  0  0  0  0  0
   -0.4723   14.6136   -4.9569 H   0  0  0  0  0  0  0  0  0  0  0  0
   -2.3896   14.4745   -2.6421 H   0  0  0  0  0  0  0  0  0  0  0  0
   -2.2125   13.3415   -3.9930 H   0  0  0  0  0  0  0  0  0  0  0  0
   -1.2055   12.3090   -1.8252 H   0  0  0  0  0  0  0  0  0  0  0  0
    1.1438   16.7620   -4.5834 H   0  0  0  0  0  0  0  0  0  0  0  0
    2.7433   17.0328   -3.9452 H   0  0  0  0  0  0  0  0  0  0  0  0
  1  7  1  0  0  0  0
  1  8  2  0  0  0  0
  2  3  1  0  0  0  0
  2  4  2  0  0  0  0
  2  5  1  0  0  0  0
  3  7  2  0  0  0  0
  3  9  1  0  0  0  0
  4  8  1  0  0  0  0
  4 10  1  0  0  0  0
  5  6  1  0  0  0  0
  6  9  1  0  0  0  0
  1 11  1  0  0  0  0
  5 12  1  0  0  0  0
  5 13  1  0  0  0  0
  6 14  1  0  0  0  0
  6 15  1  0  0  0  0
  9 16  1  0  0  0  0
 10 17  1  0  0  0  0
 10 18  1  0  0  0  0
M  END
> <FRED Chemgauss4 score>
-7.333087

$$$$
MOL0141_1
  -OEChem-06022418023D

 28 30  0     0  0  0  0  0  0999 V2000
   -7.5520   13.9930    0.2838 C   0  0  0  0  0  0  0  0  0  0  0  0
   -7.1347   13.5902    1.5524 C   0  0  0  0  0  0  0  0  0  0  0  0
   -6.6490   14.6045   -0.5859 C   0  0  0  0  0  0  0  0  0  0  0  0
   -5.8145   13.7988    1.9512 C   0  0  0  0  0  0  0  0  0  0  0  0
   -5.3288   14.8131   -0.1870 C   0  0  0  0  0  0  0  0  0  0  0  0
   -0.0941   14.9498    0.8037 C   0  0  0  0  0  0  0  0  0  0  0  0
   -0.0659   14.7870   -0.5561 C   0  0  0  0  0  0  0  0  0  0  0  0
   -4.9115   14.4103    1.0815 C   0  0  0  0  0  0  0  0  0  0  0  0
   -1.2670   14.5568   -1.2073 C   0  0  0  0  0  0  0  0  0  0  0  0
   -2.3630   14.6754    0.7677 C   0  0  0  0  0  0  0  0  0  0  0  0
    1.0690   14.7663   -1.5155 C   0  0  0  0  0  0  0  0  0  0  0  0
    0.3243   14.7540   -2.8680 C   0  0  0  0  0  0  0  0  0  0  0  0
   -1.2473   14.9023    1.5012 N   0  0  0  0  0  0  0  0  0  0  0  0
   -2.4465   14.4935   -0.5683 N   0  0  0  0  0  0  0  0  0  0  0  0
   -1.0565   14.4001   -2.5853 N   0  0  0  0  0  0  0  0  0  0  0  0
   -3.5798   14.6208    1.4834 N   0  0  0  0  0  0  0  0  0  0  0  0
   -8.5802   13.8307   -0.0266 H   0  0  0  0  0  0  0  0  0  0  0  0
   -7.8378   13.1143    2.2293 H   0  0  0  0  0  0  0  0  0  0  0  0
   -6.9741   14.9181   -1.5738 H   0  0  0  0  0  0  0  0  0  0  0  0
   -5.4994   13.4813    2.9418 H   0  0  0  0  0  0  0  0  0  0  0  0
   -4.6339   15.2904   -0.8734 H   0  0  0  0  0  0  0  0  0  0  0  0
    0.8045   15.1214    1.3836 H   0  0  0  0  0  0  0  0  0  0  0  0
    1.7051   15.6507   -1.4193 H   0  0  0  0  0  0  0  0  0  0  0  0
    1.6613   13.8551   -1.3856 H   0  0  0  0  0  0  0  0  0  0  0  0
    0.3573   15.7504   -3.3252 H   0  0  0  0  0  0  0  0  0  0  0  0
    0.7818   14.0478   -3.5683 H   0  0  0  0  0  0  0  0  0  0  0  0
   -1.7934   14.2891   -3.2642 H   0  0  0  0  0  0  0  0  0  0  0  0
   -3.4682   14.7603    2.4824 H   0  0  0  0  0  0  0  0  0  0  0  0
  1  2  1  0  0  0  0
  1  3  2  0  0  0  0
  2  4  2  0  0  0  0
  3  5  1  0  0  0  0
  4  8  1  0  0  0  0
  5  8  2  0  0  0  0
  6  7  1  0  0  0  0
  6 13  2  0  0  0  0
  7  9  2  0  0  0  0
  7 11  1  0  0  0  0
  8 16  1  0  0  0  0
  9 14  1  0  0  0  0
  9 15  1  0  0  0  0
 10 13  1  0  0  0  0
 10 14  2  0  0  0  0
 10 16  1  0  0  0  0
 11 12  1  0  0  0  0
 12 15  1  0  0  0  0
  1 17  1  0  0  0  0
  2 18  1  0  0  0  0
  3 19  1  0  0  0  0
  4 20  1  0  0  0  0
  5 21  1  0  0  0  0
  6 22  1  0  0  0  0
 11 23  1  0  0  0  0
 11 24  1  0  0  0  0
 12 25  1  0  0  0  0
 12 26  1  0  0  0  0
 15 27  1  0  0  0  0
 16 28  1  0  0  0  0
M  END
> <FRED Chemgauss4 score>
-7.321711

$$$$
MOL0107_16
  -OEChem-06022418023D

 26 27  0     1  0  0  0  0  0999 V2000
   -2.4229   15.1251    1.3499 C   0  0  0  0  0  0  0  0  0  0  0  0
   -0.1683   14.7984    1.1815 C   0  0  0  0  0  0  0  0  0  0  0  0
   -2.5314   14.9840   -0.0087 C   0  0  0  0  0  0  0  0  0  0  0  0
   -1.3730   14.7554   -0.7384 C   0  0  0  0  0  0  0  0  0  0  0  0
   -3.7137   15.0674   -0.9056 C   0  0  0  0  0  0  0  0  0  0  0  0
   -3.1217   14.5097   -2.2161 C   0  0  0  0  0  0  0  0  0  0  0  0
    0.6461   16.4045   -3.7810 C   0  0  0  0  0  0  0  0  0  0  0  0
   -0.7478   14.0753   -3.0461 C   0  0  0  0  0  0  0  0  0  0  0  0
   -0.9008   14.7466   -4.3987 C   0  0  0  0  0  0  0  0  0  0  0  0
   -1.2353   15.0319    1.9812 N   0  0  0  0  0  0  0  0  0  0  0  0
   -0.1623   14.6534   -0.1617 N   0  0  0  0  0  0  0  0  0  0  0  0
   -1.6729   14.6588   -2.1101 N   0  0  2  0  0  0  0  0  0  0  0  0
   -0.6648   16.1422   -4.2626 O   0  0  0  0  0  0  0  0  0  0  0  0
   -3.2815   15.3183    1.9812 H   0  0  0  0  0  0  0  0  0  0  0  0
    0.7925   14.7210    1.6765 H   0  0  0  0  0  0  0  0  0  0  0  0
   -4.5481   14.4551   -0.5524 H   0  0  0  0  0  0  0  0  0  0  0  0
   -4.0284   16.1089   -1.0252 H   0  0  0  0  0  0  0  0  0  0  0  0
   -3.3771   13.4466   -2.3165 H   0  0  0  0  0  0  0  0  0  0  0  0
   -3.5206   15.0357   -3.0900 H   0  0  0  0  0  0  0  0  0  0  0  0
    0.7921   17.4835   -3.6890 H   0  0  0  0  0  0  0  0  0  0  0  0
    1.3803   15.9844   -4.4731 H   0  0  0  0  0  0  0  0  0  0  0  0
    0.7643   15.9381   -2.8001 H   0  0  0  0  0  0  0  0  0  0  0  0
   -0.9553   13.0024   -3.1098 H   0  0  0  0  0  0  0  0  0  0  0  0
    0.2656   14.2220   -2.6605 H   0  0  0  0  0  0  0  0  0  0  0  0
   -1.9210   14.6113   -4.7710 H   0  0  0  0  0  0  0  0  0  0  0  0
   -0.1964   14.3402   -5.1318 H   0  0  0  0  0  0  0  0  0  0  0  0
  1  3  1  0  0  0  0
  1 10  2  0  0  0  0
  2 10  1  0  0  0  0
  2 11  2  0  0  0  0
  3  4  2  0  0  0  0
  3  5  1  0  0  0  0
  4 11  1  0  0  0  0
  4 12  1  0  0  0  0
  5  6  1  0  0  0  0
  6 12  1  0  0  0  0
  7 13  1  0  0  0  0
  8  9  1  0  0  0  0
  8 12  1  0  0  0  0
  9 13  1  0  0  0  0
  1 14  1  0  0  0  0
  2 15  1  0  0  0  0
  5 16  1  0  0  0  0
  5 17  1  0  0  0  0
  6 18  1  0  0  0  0
  6 19  1  0  0  0  0
  7 20  1  0  0  0  0
  7 21  1  0  0  0  0
  7 22  1  0  0  0  0
  8 23  1  0  0  0  0
  8 24  1  0  0  0  0
  9 25  1  0  0  0  0
  9 26  1  0  0  0  0
M  END
> <FRED Chemgauss4 score>
-7.303855

$$$$
MOL0092_1
  -OEChem-06022418023D

 19 20  0     0  0  0  0  0  0999 V2000
    2.2350   14.1436   -1.1790 C   0  0  0  0  0  0  0  0  0  0  0  0
    0.6525   14.4185   -3.2913 C   0  0  0  0  0  0  0  0  0  0  0  0
    0.4170   13.4337   -2.3688 C   0  0  0  0  0  0  0  0  0  0  0  0
    1.7313   15.2618   -3.0794 C   0  0  0  0  0  0  0  0  0  0  0  0
   -0.0891   14.8058   -4.5196 C   0  0  0  0  0  0  0  0  0  0  0  0
    0.8732   15.8400   -5.1431 C   0  0  0  0  0  0  0  0  0  0  0  0
   -0.7330   12.5000   -2.5190 C   0  0  0  0  0  0  0  0  0  0  0  0
    1.2072   13.2683   -1.2886 N   0  0  0  0  0  0  0  0  0  0  0  0
    2.5511   15.1512   -2.0215 N   0  0  0  0  0  0  0  0  0  0  0  0
    1.8186   16.2148   -4.1050 N   0  0  0  0  0  0  0  0  0  0  0  0
    2.8768   14.0215   -0.3145 H   0  0  0  0  0  0  0  0  0  0  0  0
   -0.2477   13.9576   -5.1916 H   0  0  0  0  0  0  0  0  0  0  0  0
   -1.0461   15.2686   -4.2582 H   0  0  0  0  0  0  0  0  0  0  0  0
    1.4162   15.3903   -5.9830 H   0  0  0  0  0  0  0  0  0  0  0  0
    0.3302   16.7118   -5.5221 H   0  0  0  0  0  0  0  0  0  0  0  0
   -0.4360   11.6138   -3.0949 H   0  0  0  0  0  0  0  0  0  0  0  0
   -1.1097   12.1674   -1.5421 H   0  0  0  0  0  0  0  0  0  0  0  0
   -1.5754   12.9813   -3.0347 H   0  0  0  0  0  0  0  0  0  0  0  0
    2.5624   16.8895   -4.1936 H   0  0  0  0  0  0  0  0  0  0  0  0
  1  8  2  0  0  0  0
  1  9  1  0  0  0  0
  2  3  2  0  0  0  0
  2  4  1  0  0  0  0
  2  5  1  0  0  0  0
  3  7  1  0  0  0  0
  3  8  1  0  0  0  0
  4  9  2  0  0  0  0
  4 10  1  0  0  0  0
  5  6  1  0  0  0  0
  6 10  1  0  0  0  0
  1 11  1  0  0  0  0
  5 12  1  0  0  0  0
  5 13  1  0  0  0  0
  6 14  1  0  0  0  0
  6 15  1  0  0  0  0
  7 16  1  0  0  0  0
  7 17  1  0  0  0  0
  7 18  1  0  0  0  0
 10 19  1  0  0  0  0
M  END
> <FRED Chemgauss4 score>
-7.281747

$$$$
MOL0047_1
  -OEChem-06022418023D

 20 21  0     0  0  0  0  0  0999 V2000
    2.4284   13.9050   -1.5385 C   0  0  0  0  0  0  0  0  0  0  0  0
    0.6663   14.7793   -3.3687 C   0  0  0  0  0  0  0  0  0  0  0  0
    0.3619   13.7409   -2.4949 C   0  0  0  0  0  0  0  0  0  0  0  0
    1.9217   15.3432   -3.2221 C   0  0  0  0  0  0  0  0  0  0  0  0
   -0.3374   15.2945   -4.3546 C   0  0  0  0  0  0  0  0  0  0  0  0
   -0.9667   13.0363   -2.5971 C   0  0  0  0  0  0  0  0  0  0  0  0
   -1.4964   14.3161   -4.5667 C   0  0  0  0  0  0  0  0  0  0  0  0
    1.2372   13.2777   -1.5738 N   0  0  0  0  0  0  0  0  0  0  0  0
    2.8301   14.9262   -2.3171 N   0  0  0  0  0  0  0  0  0  0  0  0
   -1.9967   13.8278   -3.2802 N   0  0  0  0  0  0  0  0  0  0  0  0
    2.3048   16.3823   -4.0289 O   0  0  0  0  0  0  0  0  0  0  0  0
    3.1395   13.5492   -0.8030 H   0  0  0  0  0  0  0  0  0  0  0  0
   -0.7476   16.2522   -4.0136 H   0  0  0  0  0  0  0  0  0  0  0  0
    0.1735   15.4681   -5.3101 H   0  0  0  0  0  0  0  0  0  0  0  0
   -0.8365   12.0930   -3.1389 H   0  0  0  0  0  0  0  0  0  0  0  0
   -1.3090   12.7830   -1.5866 H   0  0  0  0  0  0  0  0  0  0  0  0
   -2.3095   14.7955   -5.1266 H   0  0  0  0  0  0  0  0  0  0  0  0
   -1.1557   13.4686   -5.1714 H   0  0  0  0  0  0  0  0  0  0  0  0
   -2.8186   13.2444   -3.4388 H   0  0  0  0  0  0  0  0  0  0  0  0
    3.2029   16.6600   -3.8006 H   0  0  0  0  0  0  0  0  0  0  0  0
  1  8  1  0  0  0  0
  1  9  2  0  0  0  0
  2  3  1  0  0  0  0
  2  4  2  0  0  0  0
  2  5  1  0  0  0  0
  3  6  1  0  0  0  0
  3  8  2  0  0  0  0
  4  9  1  0  0  0  0
  4 11  1  0  0  0  0
  5  7  1  0  0  0  0
  6 10  1  0  0  0  0
  7 10  1  0  0  0  0
  1 12  1  0  0  0  0
  5 13  1  0  0  0  0
  5 14  1  0  0  0  0
  6 15  1  0  0  0  0
  6 16  1  0  0  0  0
  7 17  1  0  0  0  0
  7 18  1  0  0  0  0
 10 19  1  0  0  0  0
 11 20  1  0  0  0  0
M  END
> <FRED Chemgauss4 score>
-7.216279

$$$$
MOL0149_3
  -OEChem-06022418023D

 25 26  0     1  0  0  0  0  0999 V2000
    0.3143   13.5146   -2.0771 C   0  0  0  0  0  0  0  0  0  0  0  0
    2.2583   14.1948   -1.0892 C   0  0  0  0  0  0  0  0  0  0  0  0
    0.5467   14.3818   -3.1152 C   0  0  0  0  0  0  0  0  0  0  0  0
    1.7017   15.1478   -3.0648 C   0  0  0  0  0  0  0  0  0  0  0  0
    0.5383   15.9088   -4.9123 C   0  0  0  0  0  0  0  0  0  0  0  0
   -0.2270   14.6607   -4.3708 C   0  0  2  0  0  0  0  0  0  0  0  0
   -1.6959   14.9879   -4.0930 C   0  0  0  0  0  0  0  0  0  0  0  0
   -0.6510   12.2259   -4.7458 C   0  0  0  0  0  0  0  0  0  0  0  0
   -0.1149   13.4819   -5.3451 C   0  0  0  0  0  0  0  0  0  0  0  0
    1.1636   13.4012   -1.0357 N   0  0  0  0  0  0  0  0  0  0  0  0
    2.5879   15.0761   -2.0577 N   0  0  0  0  0  0  0  0  0  0  0  0
    1.8005   15.9733   -4.1926 N   0  0  0  0  0  0  0  0  0  0  0  0
   -0.5592   12.8747   -2.0436 H   0  0  0  0  0  0  0  0  0  0  0  0
    2.9499   14.1128   -0.2591 H   0  0  0  0  0  0  0  0  0  0  0  0
    0.7119   15.8539   -5.9925 H   0  0  0  0  0  0  0  0  0  0  0  0
   -0.0209   16.8320   -4.7155 H   0  0  0  0  0  0  0  0  0  0  0  0
   -2.2116   15.1815   -5.0310 H   0  0  0  0  0  0  0  0  0  0  0  0
   -1.7610   15.8694   -3.4591 H   0  0  0  0  0  0  0  0  0  0  0  0
   -2.1693   14.1477   -3.5898 H   0  0  0  0  0  0  0  0  0  0  0  0
   -0.0907   11.9903   -3.8334 H   0  0  0  0  0  0  0  0  0  0  0  0
   -0.5432   11.3836   -5.4374 H   0  0  0  0  0  0  0  0  0  0  0  0
   -1.7065   12.3388   -4.4767 H   0  0  0  0  0  0  0  0  0  0  0  0
   -0.6670   13.7244   -6.2545 H   0  0  0  0  0  0  0  0  0  0  0  0
    0.9340   13.3468   -5.6134 H   0  0  0  0  0  0  0  0  0  0  0  0
    2.5258   16.6597   -4.3311 H   0  0  0  0  0  0  0  0  0  0  0  0
  1  3  1  0  0  0  0
  1 10  2  0  0  0  0
  2 10  1  0  0  0  0
  2 11  2  0  0  0  0
  3  4  2  0  0  0  0
  3  6  1  0  0  0  0
  4 11  1  0  0  0  0
  4 12  1  0  0  0  0
  5  6  1  0  0  0  0
  5 12  1  0  0  0  0
  6  7  1  0  0  0  0
  6  9  1  0  0  0  0
  8  9  1  0  0  0  0
  1 13  1  0  0  0  0
  2 14  1  0  0  0  0
  5 15  1  0  0  0  0
  5 16  1  0  0  0  0
  7 17  1  0  0  0  0
  7 18  1  0  0  0  0
  7 19  1  0  0  0  0
  8 20  1  0  0  0  0
  8 21  1  0  0  0  0
  8 22  1  0  0  0  0
  9 23  1  0  0  0  0
  9 24  1  0  0  0  0
 12 25  1  0  0  0  0
M  END
> <FRED Chemgauss4 score>
-7.207782

$$$$
MOL0197_4
  -OEChem-06022418023D

 27 29  0     0  0  0  0  0  0999 V2000
    0.5162   15.2133   -3.9930 C   0  0  0  0  0  0  0  0  0  0  0  0
   -0.6305   15.1276   -3.2035 C   0  0  0  0  0  0  0  0  0  0  0  0
    1.7632   14.9090   -3.4471 C   0  0  0  0  0  0  0  0  0  0  0  0
    0.7168   14.4334   -1.3220 C   0  0  0  0  0  0  0  0  0  0  0  0
   -2.6654   14.8039    1.0204 C   0  0  0  0  0  0  0  0  0  0  0  0
   -0.5302   14.7377   -1.8680 C   0  0  0  0  0  0  0  0  0  0  0  0
   -3.8795   14.4841    0.4726 C   0  0  0  0  0  0  0  0  0  0  0  0
    1.8635   14.5190   -2.1116 C   0  0  0  0  0  0  0  0  0  0  0  0
   -3.9363   14.2594   -0.8935 C   0  0  0  0  0  0  0  0  0  0  0  0
   -1.7139   14.6485   -1.0521 C   0  0  0  0  0  0  0  0  0  0  0  0
   -5.2284   14.3661    1.0852 C   0  0  0  0  0  0  0  0  0  0  0  0
   -6.0440   13.7755   -0.0854 C   0  0  0  0  0  0  0  0  0  0  0  0
   -1.5480   14.8901    0.2702 N   0  0  0  0  0  0  0  0  0  0  0  0
   -2.8606   14.3352   -1.6938 N   0  0  0  0  0  0  0  0  0  0  0  0
   -5.2487   13.9594   -1.2877 N   0  0  0  0  0  0  0  0  0  0  0  0
    3.0805   14.2221   -1.5791 O   0  0  0  0  0  0  0  0  0  0  0  0
    0.4381   15.5173   -5.0327 H   0  0  0  0  0  0  0  0  0  0  0  0
   -1.5954   15.3681   -3.6436 H   0  0  0  0  0  0  0  0  0  0  0  0
    2.6532   14.9773   -4.0668 H   0  0  0  0  0  0  0  0  0  0  0  0
    0.8048   14.1291   -0.2810 H   0  0  0  0  0  0  0  0  0  0  0  0
   -2.5435   15.0053    2.0776 H   0  0  0  0  0  0  0  0  0  0  0  0
   -5.2304   13.6962    1.9496 H   0  0  0  0  0  0  0  0  0  0  0  0
   -5.6061   15.3536    1.3687 H   0  0  0  0  0  0  0  0  0  0  0  0
   -6.2136   12.7043    0.0769 H   0  0  0  0  0  0  0  0  0  0  0  0
   -7.0212   14.2608   -0.1752 H   0  0  0  0  0  0  0  0  0  0  0  0
   -5.5160   13.6969   -2.2236 H   0  0  0  0  0  0  0  0  0  0  0  0
    2.9871   13.9695   -0.6468 H   0  0  0  0  0  0  0  0  0  0  0  0
  1  2  1  0  0  0  0
  1  3  2  0  0  0  0
  2  6  2  0  0  0  0
  3  8  1  0  0  0  0
  4  6  1  0  0  0  0
  4  8  2  0  0  0  0
  5  7  1  0  0  0  0
  5 13  2  0  0  0  0
  6 10  1  0  0  0  0
  7  9  2  0  0  0  0
  7 11  1  0  0  0  0
  8 16  1  0  0  0  0
  9 14  1  0  0  0  0
  9 15  1  0  0  0  0
 10 13  1  0  0  0  0
 10 14  2  0  0  0  0
 11 12  1  0  0  0  0
 12 15  1  0  0  0  0
  1 17  1  0  0  0  0
  2 18  1  0  0  0  0
  3 19  1  0  0  0  0
  4 20  1  0  0  0  0
  5 21  1  0  0  0  0
 11 22  1  0  0  0  0
 11 23  1  0  0  0  0
 12 24  1  0  0  0  0
 12 25  1  0  0  0  0
 15 26  1  0  0  0  0
 16 27  1  0  0  0  0
M  END
> <FRED Chemgauss4 score>
-7.196817

$$$$
MOL0180_2
  -OEChem-06022418023D

 31 33  0     1  0  0  0  0  0999 V2000
    0.0170   14.4810   -3.6137 C   0  0  0  0  0  0  0  0  0  0  0  0
    2.1338   15.2500   -4.0042 C   0  0  0  0  0  0  0  0  0  0  0  0
    0.1912   14.7105   -2.2730 C   0  0  0  0  0  0  0  0  0  0  0  0
    1.4154   15.2168   -1.8596 C   0  0  0  0  0  0  0  0  0  0  0  0
   -4.9671   14.7897   -0.9509 C   0  0  0  0  0  0  0  0  0  0  0  0
   -4.2749   14.5007   -2.2780 C   0  0  0  0  0  0  0  0  0  0  0  0
   -4.1042   15.7031   -0.0878 C   0  0  0  0  0  0  0  0  0  0  0  0
   -2.8502   13.9880   -2.0626 C   0  0  0  0  0  0  0  0  0  0  0  0
   -2.6848   15.1522    0.0584 C   0  0  0  0  0  0  0  0  0  0  0  0
    0.0776   15.2042    0.0174 C   0  0  0  0  0  0  0  0  0  0  0  0
   -0.6917   14.4497   -1.0980 C   0  0  1  0  0  0  0  0  0  0  0  0
    0.9830   14.7523   -4.5152 N   0  0  0  0  0  0  0  0  0  0  0  0
    2.4176   15.5005   -2.7077 N   0  0  0  0  0  0  0  0  0  0  0  0
    1.4397   15.3709   -0.4639 N   0  0  0  0  0  0  0  0  0  0  0  0
   -2.0638   14.9312   -1.2552 N   0  0  0  0  0  0  0  0  0  0  0  0
   -0.8997   14.0666   -4.0152 H   0  0  0  0  0  0  0  0  0  0  0  0
    2.9179   15.4712   -4.7186 H   0  0  0  0  0  0  0  0  0  0  0  0
   -5.9345   15.2712   -1.1399 H   0  0  0  0  0  0  0  0  0  0  0  0
   -5.1709   13.8529   -0.4207 H   0  0  0  0  0  0  0  0  0  0  0  0
   -4.8532   13.7542   -2.8376 H   0  0  0  0  0  0  0  0  0  0  0  0
   -4.2526   15.4104   -2.8889 H   0  0  0  0  0  0  0  0  0  0  0  0
   -4.0685   16.7048   -0.5309 H   0  0  0  0  0  0  0  0  0  0  0  0
   -4.5611   15.8085    0.9044 H   0  0  0  0  0  0  0  0  0  0  0  0
   -2.9098   13.0205   -1.5494 H   0  0  0  0  0  0  0  0  0  0  0  0
   -2.3715   13.8124   -3.0352 H   0  0  0  0  0  0  0  0  0  0  0  0
   -2.0830   15.8428    0.6641 H   0  0  0  0  0  0  0  0  0  0  0  0
   -2.7419   14.2036    0.6060 H   0  0  0  0  0  0  0  0  0  0  0  0
   -0.3512   16.1975    0.2029 H   0  0  0  0  0  0  0  0  0  0  0  0
    0.0522   14.6514    0.9625 H   0  0  0  0  0  0  0  0  0  0  0  0
   -0.6923   13.3731   -0.8900 H   0  0  0  0  0  0  0  0  0  0  0  0
    2.1993   15.7990    0.0425 H   0  0  0  0  0  0  0  0  0  0  0  0
  1  3  1  0  0  0  0
  1 12  2  0  0  0  0
  2 12  1  0  0  0  0
  2 13  2  0  0  0  0
  3  4  2  0  0  0  0
  3 11  1  0  0  0  0
  4 13  1  0  0  0  0
  4 14  1  0  0  0  0
  5  6  1  0  0  0  0
  5  7  1  0  0  0  0
  6  8  1  0  0  0  0
  7  9  1  0  0  0  0
  8 15  1  0  0  0  0
  9 15  1  0  0  0  0
 10 11  1  0  0  0  0
 10 14  1  0  0  0  0
 11 15  1  0  0  0  0
  1 16  1  0  0  0  0
  2 17  1  0  0  0  0
  5 18  1  0  0  0  0
  5 19  1  0  0  0  0
  6 20  1  0  0  0  0
  6 21  1  0  0  0  0
  7 22  1  0  0  0  0
  7 23  1  0  0  0  0
  8 24  1  0  0  0  0
  8 25  1  0  0  0  0
  9 26  1  0  0  0  0
  9 27  1  0  0  0  0
 10 28  1  0  0  0  0
 10 29  1  0  0  0  0
 11 30  1  0  0  0  0
 14 31  1  0  0  0  0
M  END
> <FRED Chemgauss4 score>
-7.190773

$$$$
MOL0206_2
  -OEChem-06022418023D

 26 28  0     0  0  0  0  0  0999 V2000
    0.7450   13.3989   -5.1068 C   0  0  0  0  0  0  0  0  0  0  0  0
    1.2189   14.2150   -4.0797 C   0  0  0  0  0  0  0  0  0  0  0  0
   -0.5619   12.9132   -5.0651 C   0  0  0  0  0  0  0  0  0  0  0  0
    0.3858   14.5453   -3.0107 C   0  0  0  0  0  0  0  0  0  0  0  0
   -1.3949   13.2435   -3.9962 C   0  0  0  0  0  0  0  0  0  0  0  0
   -2.5430   15.2284    1.5175 C   0  0  0  0  0  0  0  0  0  0  0  0
   -0.2753   15.0603    1.3778 C   0  0  0  0  0  0  0  0  0  0  0  0
   -2.6367   14.9269    0.1821 C   0  0  0  0  0  0  0  0  0  0  0  0
   -0.9211   14.0595   -2.9690 C   0  0  0  0  0  0  0  0  0  0  0  0
   -1.4677   14.6825   -0.5233 C   0  0  0  0  0  0  0  0  0  0  0  0
   -3.8333   14.7595   -0.6732 C   0  0  0  0  0  0  0  0  0  0  0  0
   -3.1961   14.6695   -2.0699 C   0  0  0  0  0  0  0  0  0  0  0  0
   -1.3565   15.3068    2.1500 N   0  0  0  0  0  0  0  0  0  0  0  0
   -0.2588   14.7488    0.0635 N   0  0  0  0  0  0  0  0  0  0  0  0
   -1.7567   14.3906   -1.8973 N   0  0  0  0  0  0  0  0  0  0  0  0
    1.3939   13.1416   -5.9391 H   0  0  0  0  0  0  0  0  0  0  0  0
    2.2363   14.5930   -4.1122 H   0  0  0  0  0  0  0  0  0  0  0  0
   -0.9307   12.2776   -5.8651 H   0  0  0  0  0  0  0  0  0  0  0  0
    0.7647   15.1818   -2.2153 H   0  0  0  0  0  0  0  0  0  0  0  0
   -2.4116   12.8592   -3.9745 H   0  0  0  0  0  0  0  0  0  0  0  0
   -3.4182   15.4147    2.1283 H   0  0  0  0  0  0  0  0  0  0  0  0
    0.6886   15.1191    1.8692 H   0  0  0  0  0  0  0  0  0  0  0  0
   -4.3573   13.8325   -0.4197 H   0  0  0  0  0  0  0  0  0  0  0  0
   -4.5160   15.6109   -0.6006 H   0  0  0  0  0  0  0  0  0  0  0  0
   -3.6830   13.8952   -2.6742 H   0  0  0  0  0  0  0  0  0  0  0  0
   -3.3203   15.6273   -2.5930 H   0  0  0  0  0  0  0  0  0  0  0  0
  1  2  1  0  0  0  0
  1  3  2  0  0  0  0
  2  4  2  0  0  0  0
  3  5  1  0  0  0  0
  4  9  1  0  0  0  0
  5  9  2  0  0  0  0
  6  8  1  0  0  0  0
  6 13  2  0  0  0  0
  7 13  1  0  0  0  0
  7 14  2  0  0  0  0
  8 10  2  0  0  0  0
  8 11  1  0  0  0  0
  9 15  1  0  0  0  0
 10 14  1  0  0  0  0
 10 15  1  0  0  0  0
 11 12  1  0  0  0  0
 12 15  1  0  0  0  0
  1 16  1  0  0  0  0
  2 17  1  0  0  0  0
  3 18  1  0  0  0  0
  4 19  1  0  0  0  0
  5 20  1  0  0  0  0
  6 21  1  0  0  0  0
  7 22  1  0  0  0  0
 11 23  1  0  0  0  0
 11 24  1  0  0  0  0
 12 25  1  0  0  0  0
 12 26  1  0  0  0  0
M  END
> <FRED Chemgauss4 score>
-7.174232

$$$$
MOL0077_3
  -OEChem-06022418023D

 24 25  0     0  0  0  0  0  0999 V2000
   -0.0213   14.8344    0.7947 C   0  0  0  0  0  0  0  0  0  0  0  0
   -2.4191   14.7850   -0.3408 C   0  0  0  0  0  0  0  0  0  0  0  0
   -2.2548   15.1326    0.9903 C   0  0  0  0  0  0  0  0  0  0  0  0
   -1.3011   14.4567   -1.0611 C   0  0  0  0  0  0  0  0  0  0  0  0
   -3.8564   14.8007   -0.7187 C   0  0  0  0  0  0  0  0  0  0  0  0
   -4.4899   15.4691    0.5207 C   0  0  0  0  0  0  0  0  0  0  0  0
    0.1745   15.5084   -3.4825 C   0  0  0  0  0  0  0  0  0  0  0  0
   -0.3693   14.1264   -3.3520 C   0  0  0  0  0  0  0  0  0  0  0  0
   -1.0567   15.1671    1.5961 N   0  0  0  0  0  0  0  0  0  0  0  0
   -0.0700   14.4775   -0.5109 N   0  0  0  0  0  0  0  0  0  0  0  0
   -3.4945   15.4237    1.5786 N   0  0  0  0  0  0  0  0  0  0  0  0
   -1.4476   14.0830   -2.4152 N   0  0  0  0  0  0  0  0  0  0  0  0
    0.9628   14.8547    1.2479 H   0  0  0  0  0  0  0  0  0  0  0  0
   -4.0411   15.3892   -1.6221 H   0  0  0  0  0  0  0  0  0  0  0  0
   -4.2289   13.7793   -0.8470 H   0  0  0  0  0  0  0  0  0  0  0  0
   -4.7364   16.5145    0.2997 H   0  0  0  0  0  0  0  0  0  0  0  0
   -5.4127   14.9613    0.8195 H   0  0  0  0  0  0  0  0  0  0  0  0
    0.5405   15.8529   -2.5040 H   0  0  0  0  0  0  0  0  0  0  0  0
    1.0039   15.5092   -4.2051 H   0  0  0  0  0  0  0  0  0  0  0  0
   -0.6196   16.1830   -3.8350 H   0  0  0  0  0  0  0  0  0  0  0  0
   -0.7329   13.7895   -4.3339 H   0  0  0  0  0  0  0  0  0  0  0  0
    0.4323   13.4562   -3.0081 H   0  0  0  0  0  0  0  0  0  0  0  0
   -3.6119   15.7637    2.5202 H   0  0  0  0  0  0  0  0  0  0  0  0
   -2.3572   13.7795   -2.7049 H   0  0  0  0  0  0  0  0  0  0  0  0
  1  9  1  0  0  0  0
  1 10  2  0  0  0  0
  2  3  1  0  0  0  0
  2  4  2  0  0  0  0
  2  5  1  0  0  0  0
  3  9  2  0  0  0  0
  3 11  1  0  0  0  0
  4 10  1  0  0  0  0
  4 12  1  0  0  0  0
  5  6  1  0  0  0  0
  6 11  1  0  0  0  0
  7  8  1  0  0  0  0
  8 12  1  0  0  0  0
  1 13  1  0  0  0  0
  5 14  1  0  0  0  0
  5 15  1  0  0  0  0
  6 16  1  0  0  0  0
  6 17  1  0  0  0  0
  7 18  1  0  0  0  0
  7 19  1  0  0  0  0
  7 20  1  0  0  0  0
  8 21  1  0  0  0  0
  8 22  1  0  0  0  0
 11 23  1  0  0  0  0
 12 24  1  0  0  0  0
M  END
> <FRED Chemgauss4 score>
-7.125356

$$$$
MOL0017_1
  -OEChem-06022418023D

 13 14  0     0  0  0  0  0  0999 V2000
   -1.9150   14.8595    0.6814 C   0  0  0  0  0  0  0  0  0  0  0  0
   -5.4284   14.9363    0.3102 C   0  0  0  0  0  0  0  0  0  0  0  0
   -4.5376   14.8087   -1.8206 C   0  0  0  0  0  0  0  0  0  0  0  0
   -3.0664   14.8517   -0.1248 C   0  0  0  0  0  0  0  0  0  0  0  0
   -4.1243   14.9235    0.7674 C   0  0  0  0  0  0  0  0  0  0  0  0
   -5.6315   14.8766   -1.0254 N   0  0  0  0  0  0  0  0  0  0  0  0
   -2.2063   14.9302    1.9844 N   0  0  0  0  0  0  0  0  0  0  0  0
   -3.2346   14.7911   -1.4660 N   0  0  0  0  0  0  0  0  0  0  0  0
   -3.5524   14.9680    2.0045 N   0  0  0  0  0  0  0  0  0  0  0  0
   -0.8782   14.8164    0.3801 H   0  0  0  0  0  0  0  0  0  0  0  0
   -6.2967   14.9915    0.9516 H   0  0  0  0  0  0  0  0  0  0  0  0
   -4.7352   14.7621   -2.8861 H   0  0  0  0  0  0  0  0  0  0  0  0
   -4.0157   15.0238    2.9030 H   0  0  0  0  0  0  0  0  0  0  0  0
  1  4  1  0  0  0  0
  1  7  2  0  0  0  0
  2  5  1  0  0  0  0
  2  6  2  0  0  0  0
  3  6  1  0  0  0  0
  3  8  2  0  0  0  0
  4  5  2  0  0  0  0
  4  8  1  0  0  0  0
  5  9  1  0  0  0  0
  7  9  1  0  0  0  0
  1 10  1  0  0  0  0
  2 11  1  0  0  0  0
  3 12  1  0  0  0  0
  9 13  1  0  0  0  0
M  END
> <FRED Chemgauss4 score>
-7.068375

$$$$
MOL0027_1
  -OEChem-06022418023D

 21 22  0     0  0  0  0  0  0999 V2000
    2.4289   13.7210   -1.4946 C   0  0  0  0  0  0  0  0  0  0  0  0
    0.6521   14.7149   -3.2479 C   0  0  0  0  0  0  0  0  0  0  0  0
    0.3535   13.6223   -2.4405 C   0  0  0  0  0  0  0  0  0  0  0  0
    1.9098   15.2663   -3.0765 C   0  0  0  0  0  0  0  0  0  0  0  0
   -0.3595   15.2944   -4.1890 C   0  0  0  0  0  0  0  0  0  0  0  0
   -0.9774   12.9278   -2.5761 C   0  0  0  0  0  0  0  0  0  0  0  0
   -1.5224   14.3336   -4.4535 C   0  0  0  0  0  0  0  0  0  0  0  0
    1.2361   13.0990   -1.5596 N   0  0  0  0  0  0  0  0  0  0  0  0
    2.8256   14.7900   -2.2089 N   0  0  0  0  0  0  0  0  0  0  0  0
   -2.0120   13.7634   -3.1969 N   0  0  0  0  0  0  0  0  0  0  0  0
    2.2736   16.3908   -3.8572 N   0  0  0  0  0  0  0  0  0  0  0  0
    3.1460   13.3169   -0.7907 H   0  0  0  0  0  0  0  0  0  0  0  0
   -0.7718   16.2270   -3.7863 H   0  0  0  0  0  0  0  0  0  0  0  0
    0.1422   15.5277   -5.1368 H   0  0  0  0  0  0  0  0  0  0  0  0
   -0.8542   12.0210   -3.1787 H   0  0  0  0  0  0  0  0  0  0  0  0
   -1.3110   12.6101   -1.5810 H   0  0  0  0  0  0  0  0  0  0  0  0
   -2.3404   14.8483   -4.9737 H   0  0  0  0  0  0  0  0  0  0  0  0
   -1.1884   13.5268   -5.1150 H   0  0  0  0  0  0  0  0  0  0  0  0
   -2.8363   13.1928   -3.3860 H   0  0  0  0  0  0  0  0  0  0  0  0
    1.6339   16.7283   -4.5434 H   0  0  0  0  0  0  0  0  0  0  0  0
    3.1955   16.7603   -3.7691 H   0  0  0  0  0  0  0  0  0  0  0  0
  1  8  1  0  0  0  0
  1  9  2  0  0  0  0
  2  3  1  0  0  0  0
  2  4  2  0  0  0  0
  2  5  1  0  0  0  0
  3  6  1  0  0  0  0
  3  8  2  0  0  0  0
  4  9  1  0  0  0  0
  4 11  1  0  0  0  0
  5  7  1  0  0  0  0
  6 10  1  0  0  0  0
  7 10  1  0  0  0  0
  1 12  1  0  0  0  0
  5 13  1  0  0  0  0
  5 14  1  0  0  0  0
  6 15  1  0  0  0  0
  6 16  1  0  0  0  0
  7 17  1  0  0  0  0
  7 18  1  0  0  0  0
 10 19  1  0  0  0  0
 11 20  1  0  0  0  0
 11 21  1  0  0  0  0
M  END
> <FRED Chemgauss4 score>
-7.061729

$$$$
MOL0050_3
  -OEChem-06022418023D

 23 25  0     1  0  0  0  0  0999 V2000
   -2.6684   15.0999    1.5530 C   0  0  0  0  0  0  0  0  0  0  0  0
   -0.4955   14.7775    0.9264 C   0  0  0  0  0  0  0  0  0  0  0  0
   -3.0315   15.1267    0.2322 C   0  0  0  0  0  0  0  0  0  0  0  0
   -2.0362   14.9791   -0.7241 C   0  0  0  0  0  0  0  0  0  0  0  0
   -4.3565   15.3287   -0.4103 C   0  0  0  0  0  0  0  0  0  0  0  0
   -0.3795   14.7226   -3.2881 C   0  0  0  0  0  0  0  0  0  0  0  0
   -0.9904   13.3649   -3.1037 C   0  0  0  0  0  0  0  0  0  0  0  0
   -4.0356   14.9303   -1.8654 C   0  0  0  0  0  0  0  0  0  0  0  0
   -1.8716   14.5807   -3.1722 C   0  0  0  0  0  0  0  0  0  0  0  0
   -1.3878   14.9205    1.9344 N   0  0  0  0  0  0  0  0  0  0  0  0
   -0.7434   14.7975   -0.4015 N   0  0  0  0  0  0  0  0  0  0  0  0
   -2.5883   15.0532   -2.0166 N   0  0  2  0  0  0  0  0  0  0  0  0
   -3.3888   15.2208    2.3528 H   0  0  0  0  0  0  0  0  0  0  0  0
    0.5372   14.6308    1.2194 H   0  0  0  0  0  0  0  0  0  0  0  0
   -5.1293   14.6849    0.0186 H   0  0  0  0  0  0  0  0  0  0  0  0
   -4.6556   16.3797   -0.3448 H   0  0  0  0  0  0  0  0  0  0  0  0
    0.1655   15.1466   -2.4537 H   0  0  0  0  0  0  0  0  0  0  0  0
    0.0303   14.9642   -4.2611 H   0  0  0  0  0  0  0  0  0  0  0  0
   -0.9923   12.6925   -3.9526 H   0  0  0  0  0  0  0  0  0  0  0  0
   -0.8562   12.8794   -2.1449 H   0  0  0  0  0  0  0  0  0  0  0  0
   -4.3378   13.8895   -2.0421 H   0  0  0  0  0  0  0  0  0  0  0  0
   -4.5734   15.5634   -2.5789 H   0  0  0  0  0  0  0  0  0  0  0  0
   -2.4470   14.7161   -4.0813 H   0  0  0  0  0  0  0  0  0  0  0  0
  1  3  1  0  0  0  0
  1 10  2  0  0  0  0
  2 10  1  0  0  0  0
  2 11  2  0  0  0  0
  3  4  2  0  0  0  0
  3  5  1  0  0  0  0
  4 11  1  0  0  0  0
  4 12  1  0  0  0  0
  5  8  1  0  0  0  0
  6  7  1  0  0  0  0
  6  9  1  0  0  0  0
  7  9  1  0  0  0  0
  8 12  1  0  0  0  0
  9 12  1  0  0  0  0
  1 13  1  0  0  0  0
  2 14  1  0  0  0  0
  5 15  1  0  0  0  0
  5 16  1  0  0  0  0
  6 17  1  0  0  0  0
  6 18  1  0  0  0  0
  7 19  1  0  0  0  0
  7 20  1  0  0  0  0
  8 21  1  0  0  0  0
  8 22  1  0  0  0  0
  9 23  1  0  0  0  0
M  END
> <FRED Chemgauss4 score>
-7.058546

$$$$
MOL0184_1
  -OEChem-06022418023D

 22 23  0     1  0  0  0  0  0999 V2000
    2.0647   15.1499   -3.4311 C   0  0  0  0  0  0  0  0  0  0  0  0
    2.6650   14.0882   -1.5148 C   0  0  0  0  0  0  0  0  0  0  0  0
    0.8442   14.4967   -3.4499 C   0  0  0  0  0  0  0  0  0  0  0  0
    0.6084   13.6276   -2.3904 C   0  0  0  0  0  0  0  0  0  0  0  0
   -0.1907   14.7621   -4.5017 C   0  0  0  0  0  0  0  0  0  0  0  0
   -0.6789   12.8470   -2.3359 C   0  0  0  0  0  0  0  0  0  0  0  0
   -1.7757   13.4612   -3.2228 C   0  0  2  0  0  0  0  0  0  0  0  0
   -2.9663   12.5127   -3.3419 C   0  0  0  0  0  0  0  0  0  0  0  0
    3.0011   14.9648   -2.4785 N   0  0  0  0  0  0  0  0  0  0  0  0
    1.5132   13.3983   -1.4119 N   0  0  0  0  0  0  0  0  0  0  0  0
   -1.2456   13.7420   -4.5655 N   0  0  0  0  0  0  0  0  0  0  0  0
    2.3330   15.8644   -4.2029 H   0  0  0  0  0  0  0  0  0  0  0  0
    3.4004   13.9183   -0.7380 H   0  0  0  0  0  0  0  0  0  0  0  0
   -0.6430   15.7431   -4.3107 H   0  0  0  0  0  0  0  0  0  0  0  0
    0.2930   14.8058   -5.4841 H   0  0  0  0  0  0  0  0  0  0  0  0
   -0.4586   11.8210   -2.6581 H   0  0  0  0  0  0  0  0  0  0  0  0
   -1.0300   12.7994   -1.2984 H   0  0  0  0  0  0  0  0  0  0  0  0
   -2.1322   14.3980   -2.7736 H   0  0  0  0  0  0  0  0  0  0  0  0
   -2.6454   11.5715   -3.7852 H   0  0  0  0  0  0  0  0  0  0  0  0
   -3.7332   12.9605   -3.9717 H   0  0  0  0  0  0  0  0  0  0  0  0
   -3.3834   12.3184   -2.3552 H   0  0  0  0  0  0  0  0  0  0  0  0
   -1.9934   14.0710   -5.1756 H   0  0  0  0  0  0  0  0  0  0  0  0
  1  3  1  0  0  0  0
  1  9  2  0  0  0  0
  2  9  1  0  0  0  0
  2 10  2  0  0  0  0
  3  4  2  0  0  0  0
  3  5  1  0  0  0  0
  4  6  1  0  0  0  0
  4 10  1  0  0  0  0
  5 11  1  0  0  0  0
  6  7  1  0  0  0  0
  7  8  1  0  0  0  0
  7 11  1  0  0  0  0
  1 12  1  0  0  0  0
  2 13  1  0  0  0  0
  5 14  1  0  0  0  0
  5 15  1  0  0  0  0
  6 16  1  0  0  0  0
  6 17  1  0  0  0  0
  7 18  1  0  0  0  0
  8 19  1  0  0  0  0
  8 20  1  0  0  0  0
  8 21  1  0  0  0  0
 11 22  1  0  0  0  0
M  END
> <FRED Chemgauss4 score>
-7.053398

$$$$
MOL0102_5
  -OEChem-06022418023D

 26 28  0     0  0  0  0  0  0999 V2000
   -4.6176   14.7881   -1.0961 C   0  0  0  0  0  0  0  0  0  0  0  0
   -4.6054   15.0364    0.2764 C   0  0  0  0  0  0  0  0  0  0  0  0
   -3.4192   14.5714   -1.7764 C   0  0  0  0  0  0  0  0  0  0  0  0
   -3.3949   15.0681    0.9687 C   0  0  0  0  0  0  0  0  0  0  0  0
    0.0050   13.9329   -3.8330 C   0  0  0  0  0  0  0  0  0  0  0  0
   -2.2087   14.6031   -1.0841 C   0  0  0  0  0  0  0  0  0  0  0  0
    1.2260   13.9434   -3.2120 C   0  0  0  0  0  0  0  0  0  0  0  0
   -2.1965   14.8514    0.2885 C   0  0  0  0  0  0  0  0  0  0  0  0
    1.2591   14.1921   -1.8494 C   0  0  0  0  0  0  0  0  0  0  0  0
   -0.9953   14.3741   -1.8256 C   0  0  0  0  0  0  0  0  0  0  0  0
    2.5998   13.7724   -3.7526 C   0  0  0  0  0  0  0  0  0  0  0  0
    3.4307   13.6936   -2.4535 C   0  0  0  0  0  0  0  0  0  0  0  0
   -1.1400   14.1443   -3.1525 N   0  0  0  0  0  0  0  0  0  0  0  0
    0.1549   14.4148   -1.1182 N   0  0  0  0  0  0  0  0  0  0  0  0
    2.5809   14.1807   -1.3799 N   0  0  0  0  0  0  0  0  0  0  0  0
   -0.7258   14.9022    1.1974 Cl  0  0  0  0  0  0  0  0  0  0  0  0
   -5.5603   14.7636   -1.6349 H   0  0  0  0  0  0  0  0  0  0  0  0
   -5.5386   15.2051    0.8059 H   0  0  0  0  0  0  0  0  0  0  0  0
   -3.4478   14.3793   -2.8464 H   0  0  0  0  0  0  0  0  0  0  0  0
   -3.4037   15.2630    2.0382 H   0  0  0  0  0  0  0  0  0  0  0  0
   -0.1008   13.7581   -4.8966 H   0  0  0  0  0  0  0  0  0  0  0  0
    2.6981   12.8578   -4.3442 H   0  0  0  0  0  0  0  0  0  0  0  0
    2.8857   14.6440   -4.3499 H   0  0  0  0  0  0  0  0  0  0  0  0
    3.7124   12.6536   -2.2496 H   0  0  0  0  0  0  0  0  0  0  0  0
    4.3506   14.2817   -2.5325 H   0  0  0  0  0  0  0  0  0  0  0  0
    2.8416   14.2734   -0.4106 H   0  0  0  0  0  0  0  0  0  0  0  0
  1  2  1  0  0  0  0
  1  3  2  0  0  0  0
  2  4  2  0  0  0  0
  3  6  1  0  0  0  0
  4  8  1  0  0  0  0
  5  7  1  0  0  0  0
  5 13  2  0  0  0  0
  6  8  2  0  0  0  0
  6 10  1  0  0  0  0
  7  9  2  0  0  0  0
  7 11  1  0  0  0  0
  8 16  1  0  0  0  0
  9 14  1  0  0  0  0
  9 15  1  0  0  0  0
 10 13  1  0  0  0  0
 10 14  2  0  0  0  0
 11 12  1  0  0  0  0
 12 15  1  0  0  0  0
  1 17  1  0  0  0  0
  2 18  1  0  0  0  0
  3 19  1  0  0  0  0
  4 20  1  0  0  0  0
  5 21  1  0  0  0  0
 11 22  1  0  0  0  0
 11 23  1  0  0  0  0
 12 24  1  0  0  0  0
 12 25  1  0  0  0  0
 15 26  1  0  0  0  0
M  END
> <FRED Chemgauss4 score>
-7.038521

$$$$
MOL0217_9
  -OEChem-06022418023D

 25 26  0     0  0  0  0  0  0999 V2000
   -0.0458   14.9332    0.8934 C   0  0  0  0  0  0  0  0  0  0  0  0
   -2.3143   15.0876   -0.4745 C   0  0  0  0  0  0  0  0  0  0  0  0
   -2.2993   15.1260    0.9104 C   0  0  0  0  0  0  0  0  0  0  0  0
   -1.1163   14.9590   -1.1260 C   0  0  0  0  0  0  0  0  0  0  0  0
   -3.7063   15.1553   -0.9910 C   0  0  0  0  0  0  0  0  0  0  0  0
   -4.4903   15.5079    0.2916 C   0  0  0  0  0  0  0  0  0  0  0  0
   -0.0173   14.3647   -3.2858 C   0  0  0  0  0  0  0  0  0  0  0  0
    0.9915   15.4623   -3.5712 C   0  0  0  0  0  0  0  0  0  0  0  0
   -1.1700   15.0495    1.6332 N   0  0  0  0  0  0  0  0  0  0  0  0
    0.0519   14.8827   -0.4566 N   0  0  0  0  0  0  0  0  0  0  0  0
   -3.6035   15.2457    1.4127 N   0  0  0  0  0  0  0  0  0  0  0  0
   -1.1102   14.9008   -2.5372 N   0  0  0  0  0  0  0  0  0  0  0  0
    2.0936   14.9168   -4.2851 O   0  0  0  0  0  0  0  0  0  0  0  0
    0.8866   14.8727    1.4423 H   0  0  0  0  0  0  0  0  0  0  0  0
   -3.8283   15.9299   -1.7536 H   0  0  0  0  0  0  0  0  0  0  0  0
   -4.0155   14.1816   -1.3846 H   0  0  0  0  0  0  0  0  0  0  0  0
   -4.7629   16.5700    0.2860 H   0  0  0  0  0  0  0  0  0  0  0  0
   -5.4131   14.9236    0.3681 H   0  0  0  0  0  0  0  0  0  0  0  0
   -0.4131   13.9386   -4.2132 H   0  0  0  0  0  0  0  0  0  0  0  0
    0.4437   13.5683   -2.6938 H   0  0  0  0  0  0  0  0  0  0  0  0
    1.3696   15.8772   -2.6317 H   0  0  0  0  0  0  0  0  0  0  0  0
    0.5510   16.2690   -4.1661 H   0  0  0  0  0  0  0  0  0  0  0  0
   -3.8295   15.3589    2.3885 H   0  0  0  0  0  0  0  0  0  0  0  0
   -1.9185   15.2587   -3.0082 H   0  0  0  0  0  0  0  0  0  0  0  0
    2.7115   15.6478   -4.4464 H   0  0  0  0  0  0  0  0  0  0  0  0
  1  9  1  0  0  0  0
  1 10  2  0  0  0  0
  2  3  1  0  0  0  0
  2  4  2  0  0  0  0
  2  5  1  0  0  0  0
  3  9  2  0  0  0  0
  3 11  1  0  0  0  0
  4 10  1  0  0  0  0
  4 12  1  0  0  0  0
  5  6  1  0  0  0  0
  6 11  1  0  0  0  0
  7  8  1  0  0  0  0
  7 12  1  0  0  0  0
  8 13  1  0  0  0  0
  1 14  1  0  0  0  0
  5 15  1  0  0  0  0
  5 16  1  0  0  0  0
  6 17  1  0  0  0  0
  6 18  1  0  0  0  0
  7 19  1  0  0  0  0
  7 20  1  0  0  0  0
  8 21  1  0  0  0  0
  8 22  1  0  0  0  0
 11 23  1  0  0  0  0
 12 24  1  0  0  0  0
 13 25  1  0  0  0  0
M  END
> <FRED Chemgauss4 score>
-7.034370

$$$$
MOL0196_3
  -OEChem-06022418023D

 28 30  0     1  0  0  0  0  0999 V2000
    0.3398   13.7830   -1.9147 C   0  0  0  0  0  0  0  0  0  0  0  0
    2.4750   14.1578   -1.1899 C   0  0  0  0  0  0  0  0  0  0  0  0
    0.5128   14.7349   -2.8866 C   0  0  0  0  0  0  0  0  0  0  0  0
    1.7361   15.3881   -2.9383 C   0  0  0  0  0  0  0  0  0  0  0  0
   -2.9737   15.5080   -5.6074 C   0  0  0  0  0  0  0  0  0  0  0  0
   -3.4359   14.8492   -4.3155 C   0  0  0  0  0  0  0  0  0  0  0  0
   -1.6465   14.8439   -5.9439 C   0  0  0  0  0  0  0  0  0  0  0  0
   -2.3511   13.8394   -3.9696 C   0  0  0  0  0  0  0  0  0  0  0  0
    0.5616   16.1125   -4.7845 C   0  0  0  0  0  0  0  0  0  0  0  0
   -0.4203   15.2878   -3.9121 C   0  0  1  0  0  0  0  0  0  0  0  0
    1.3207   13.4651   -1.0451 N   0  0  0  0  0  0  0  0  0  0  0  0
    2.7483   15.1206   -2.0967 N   0  0  0  0  0  0  0  0  0  0  0  0
    1.7422   16.3435   -3.9676 N   0  0  0  0  0  0  0  0  0  0  0  0
   -1.1442   14.2658   -4.6903 N   0  0  0  0  0  0  0  0  0  0  0  0
   -0.5917   13.2438   -1.7924 H   0  0  0  0  0  0  0  0  0  0  0  0
    3.2704   13.9120   -0.4963 H   0  0  0  0  0  0  0  0  0  0  0  0
   -3.7027   15.3771   -6.4149 H   0  0  0  0  0  0  0  0  0  0  0  0
   -2.8405   16.5857   -5.4493 H   0  0  0  0  0  0  0  0  0  0  0  0
   -3.5301   15.6044   -3.5252 H   0  0  0  0  0  0  0  0  0  0  0  0
   -4.4116   14.3642   -4.4319 H   0  0  0  0  0  0  0  0  0  0  0  0
   -1.8086   14.0592   -6.7127 H   0  0  0  0  0  0  0  0  0  0  0  0
   -0.9292   15.5700   -6.3749 H   0  0  0  0  0  0  0  0  0  0  0  0
   -2.1782   13.7910   -2.8760 H   0  0  0  0  0  0  0  0  0  0  0  0
   -2.6730   12.8249   -4.2872 H   0  0  0  0  0  0  0  0  0  0  0  0
    0.8619   15.5614   -5.6850 H   0  0  0  0  0  0  0  0  0  0  0  0
    0.1084   17.0550   -5.1098 H   0  0  0  0  0  0  0  0  0  0  0  0
   -1.1328   15.9575   -3.4159 H   0  0  0  0  0  0  0  0  0  0  0  0
    2.5548   16.8763   -4.2368 H   0  0  0  0  0  0  0  0  0  0  0  0
  1  3  1  0  0  0  0
  1 11  2  0  0  0  0
  2 11  1  0  0  0  0
  2 12  2  0  0  0  0
  3  4  2  0  0  0  0
  3 10  1  0  0  0  0
  4 12  1  0  0  0  0
  4 13  1  0  0  0  0
  5  6  1  0  0  0  0
  5  7  1  0  0  0  0
  6  8  1  0  0  0  0
  7 14  1  0  0  0  0
  8 14  1  0  0  0  0
  9 10  1  0  0  0  0
  9 13  1  0  0  0  0
 10 14  1  0  0  0  0
  1 15  1  0  0  0  0
  2 16  1  0  0  0  0
  5 17  1  0  0  0  0
  5 18  1  0  0  0  0
  6 19  1  0  0  0  0
  6 20  1  0  0  0  0
  7 21  1  0  0  0  0
  7 22  1  0  0  0  0
  8 23  1  0  0  0  0
  8 24  1  0  0  0  0
  9 25  1  0  0  0  0
  9 26  1  0  0  0  0
 10 27  1  0  0  0  0
 13 28  1  0  0  0  0
M  END
> <FRED Chemgauss4 score>
-6.980036

$$$$
MOL0030_1
  -OEChem-06022418023D

 20 21  0     0  0  0  0  0  0999 V2000
    2.5244   13.8120   -1.5803 C   0  0  0  0  0  0  0  0  0  0  0  0
    0.7657   14.8963   -3.2455 C   0  0  0  0  0  0  0  0  0  0  0  0
    1.9909   15.4932   -2.9962 C   0  0  0  0  0  0  0  0  0  0  0  0
    0.4795   13.7237   -2.5978 C   0  0  0  0  0  0  0  0  0  0  0  0
   -0.0435   15.7191   -4.1821 C   0  0  0  0  0  0  0  0  0  0  0  0
    0.9983   16.7566   -4.6539 C   0  0  0  0  0  0  0  0  0  0  0  0
   -0.9325   11.8824   -2.0765 C   0  0  0  0  0  0  0  0  0  0  0  0
    2.9030   14.9723   -2.1595 N   0  0  0  0  0  0  0  0  0  0  0  0
    1.3560   13.1482   -1.7497 N   0  0  0  0  0  0  0  0  0  0  0  0
    2.1141   16.6851   -3.7257 N   0  0  0  0  0  0  0  0  0  0  0  0
   -0.7188   13.0968   -2.7900 O   0  0  0  0  0  0  0  0  0  0  0  0
    3.2368   13.3600   -0.9004 H   0  0  0  0  0  0  0  0  0  0  0  0
   -0.4268   15.1319   -5.0214 H   0  0  0  0  0  0  0  0  0  0  0  0
   -0.8675   16.2044   -3.6496 H   0  0  0  0  0  0  0  0  0  0  0  0
    1.3489   16.5062   -5.6624 H   0  0  0  0  0  0  0  0  0  0  0  0
    0.5708   17.7638   -4.6871 H   0  0  0  0  0  0  0  0  0  0  0  0
   -1.9220   11.4864   -2.3179 H   0  0  0  0  0  0  0  0  0  0  0  0
   -0.8558   12.0712   -1.0028 H   0  0  0  0  0  0  0  0  0  0  0  0
   -0.1704   11.1575   -2.3724 H   0  0  0  0  0  0  0  0  0  0  0  0
    2.9463   17.2534   -3.7513 H   0  0  0  0  0  0  0  0  0  0  0  0
  1  8  1  0  0  0  0
  1  9  2  0  0  0  0
  2  3  1  0  0  0  0
  2  4  2  0  0  0  0
  2  5  1  0  0  0  0
  3  8  2  0  0  0  0
  3 10  1  0  0  0  0
  4  9  1  0  0  0  0
  4 11  1  0  0  0  0
  5  6  1  0  0  0  0
  6 10  1  0  0  0  0
  7 11  1  0  0  0  0
  1 12  1  0  0  0  0
  5 13  1  0  0  0  0
  5 14  1  0  0  0  0
  6 15  1  0  0  0  0
  6 16  1  0  0  0  0
  7 17  1  0  0  0  0
  7 18  1  0  0  0  0
  7 19  1  0  0  0  0
 10 20  1  0  0  0  0
M  END
> <FRED Chemgauss4 score>
-6.949749

$$$$
MOL0233_2
  -OEChem-06022418023D

 30 32  0     0  0  0  0  0  0999 V2000
   -7.2954   14.3766    0.4619 C   0  0  0  0  0  0  0  0  0  0  0  0
   -6.1222   14.0030    1.1174 C   0  0  0  0  0  0  0  0  0  0  0  0
   -7.2350   14.9153   -0.8233 C   0  0  0  0  0  0  0  0  0  0  0  0
   -4.8886   14.1681    0.4876 C   0  0  0  0  0  0  0  0  0  0  0  0
   -6.0014   15.0804   -1.4531 C   0  0  0  0  0  0  0  0  0  0  0  0
    0.1206   15.3990   -3.4456 C   0  0  0  0  0  0  0  0  0  0  0  0
   -4.8282   14.7068   -0.7977 C   0  0  0  0  0  0  0  0  0  0  0  0
    1.2228   14.6943   -3.0396 C   0  0  0  0  0  0  0  0  0  0  0  0
    1.0824   13.8330   -1.9633 C   0  0  0  0  0  0  0  0  0  0  0  0
   -1.1028   14.3926   -1.7979 C   0  0  0  0  0  0  0  0  0  0  0  0
   -3.5252   14.8815   -1.4634 C   0  0  0  0  0  0  0  0  0  0  0  0
   -2.3833   14.2342   -1.1287 C   0  0  0  0  0  0  0  0  0  0  0  0
    2.6262   14.7061   -3.5288 C   0  0  0  0  0  0  0  0  0  0  0  0
    3.2313   13.5202   -2.7466 C   0  0  0  0  0  0  0  0  0  0  0  0
   -1.0745   15.2622   -2.8359 N   0  0  0  0  0  0  0  0  0  0  0  0
   -0.0789   13.6573   -1.3122 N   0  0  0  0  0  0  0  0  0  0  0  0
    2.3033   13.2063   -1.6732 N   0  0  0  0  0  0  0  0  0  0  0  0
   -8.2560   14.2469    0.9518 H   0  0  0  0  0  0  0  0  0  0  0  0
   -6.1691   13.5824    2.1177 H   0  0  0  0  0  0  0  0  0  0  0  0
   -8.1485   15.2052   -1.3343 H   0  0  0  0  0  0  0  0  0  0  0  0
   -3.9827   13.8722    1.0114 H   0  0  0  0  0  0  0  0  0  0  0  0
   -5.9708   15.5017   -2.4551 H   0  0  0  0  0  0  0  0  0  0  0  0
    0.1545   16.1000   -4.2707 H   0  0  0  0  0  0  0  0  0  0  0  0
   -3.5269   15.5700   -2.3050 H   0  0  0  0  0  0  0  0  0  0  0  0
   -2.4107   13.5060   -0.3100 H   0  0  0  0  0  0  0  0  0  0  0  0
    2.6868   14.5432   -4.6085 H   0  0  0  0  0  0  0  0  0  0  0  0
    3.1164   15.6466   -3.2581 H   0  0  0  0  0  0  0  0  0  0  0  0
    3.3334   12.6486   -3.4044 H   0  0  0  0  0  0  0  0  0  0  0  0
    4.2245   13.7652   -2.3568 H   0  0  0  0  0  0  0  0  0  0  0  0
    2.4240   12.4915   -0.9728 H   0  0  0  0  0  0  0  0  0  0  0  0
  1  2  1  0  0  0  0
  1  3  2  0  0  0  0
  2  4  2  0  0  0  0
  3  5  1  0  0  0  0
  4  7  1  0  0  0  0
  5  7  2  0  0  0  0
  6  8  1  0  0  0  0
  6 15  2  0  0  0  0
  7 11  1  0  0  0  0
  8  9  2  0  0  0  0
  8 13  1  0  0  0  0
  9 16  1  0  0  0  0
  9 17  1  0  0  0  0
 10 12  1  0  0  0  0
 10 15  1  0  0  0  0
 10 16  2  0  0  0  0
 11 12  2  0  0  0  0
 13 14  1  0  0  0  0
 14 17  1  0  0  0  0
  1 18  1  0  0  0  0
  2 19  1  0  0  0  0
  3 20  1  0  0  0  0
  4 21  1  0  0  0  0
  5 22  1  0  0  0  0
  6 23  1  0  0  0  0
 11 24  1  0  0  0  0
 12 25  1  0  0  0  0
 13 26  1  0  0  0  0
 13 27  1  0  0  0  0
 14 28  1  0  0  0  0
 14 29  1  0  0  0  0
 17 30  1  0  0  0  0
M  END
> <FRED Chemgauss4 score>
-6.936380

$$$$
MOL0002_1
  -OEChem-06022418023D

 13 14  0     0  0  0  0  0  0999 V2000
    0.2992   13.6478   -1.9985 C   0  0  0  0  0  0  0  0  0  0  0  0
    2.3329   14.3437   -1.1442 C   0  0  0  0  0  0  0  0  0  0  0  0
    0.4967   15.9651   -4.7136 C   0  0  0  0  0  0  0  0  0  0  0  0
    0.4941   14.5825   -2.9962 C   0  0  0  0  0  0  0  0  0  0  0  0
    1.6346   15.3740   -3.0161 C   0  0  0  0  0  0  0  0  0  0  0  0
    1.2532   13.5319   -1.0475 N   0  0  0  0  0  0  0  0  0  0  0  0
    2.6070   15.2805   -2.0775 N   0  0  0  0  0  0  0  0  0  0  0  0
    1.6242   16.2291   -4.0885 N   0  0  0  0  0  0  0  0  0  0  0  0
   -0.2201   14.9774   -4.0914 N   0  0  0  0  0  0  0  0  0  0  0  0
   -0.5661   13.0039   -1.9290 H   0  0  0  0  0  0  0  0  0  0  0  0
    3.0783   14.2248   -0.3651 H   0  0  0  0  0  0  0  0  0  0  0  0
    0.1414   16.4474   -5.6129 H   0  0  0  0  0  0  0  0  0  0  0  0
   -1.1136   14.6102   -4.3911 H   0  0  0  0  0  0  0  0  0  0  0  0
  1  4  1  0  0  0  0
  1  6  2  0  0  0  0
  2  6  1  0  0  0  0
  2  7  2  0  0  0  0
  3  8  2  0  0  0  0
  3  9  1  0  0  0  0
  4  5  2  0  0  0  0
  4  9  1  0  0  0  0
  5  7  1  0  0  0  0
  5  8  1  0  0  0  0
  1 10  1  0  0  0  0
  2 11  1  0  0  0  0
  3 12  1  0  0  0  0
  9 13  1  0  0  0  0
M  END
> <FRED Chemgauss4 score>
-6.933036

$$$$
MOL0004_1
  -OEChem-06022418023D

 16 17  0     0  0  0  0  0  0999 V2000
    0.1497   14.2502   -2.2392 C   0  0  0  0  0  0  0  0  0  0  0  0
    2.3012   14.1549   -1.4733 C   0  0  0  0  0  0  0  0  0  0  0  0
    0.4613   15.3889   -2.9340 C   0  0  0  0  0  0  0  0  0  0  0  0
    1.7566   15.8720   -2.8411 C   0  0  0  0  0  0  0  0  0  0  0  0
   -0.3762   16.2785   -3.7802 C   0  0  0  0  0  0  0  0  0  0  0  0
    0.6913   17.2141   -4.3880 C   0  0  0  0  0  0  0  0  0  0  0  0
    1.0657   13.6004   -1.4927 N   0  0  0  0  0  0  0  0  0  0  0  0
    2.7113   15.2732   -2.1107 N   0  0  0  0  0  0  0  0  0  0  0  0
    1.8991   17.0445   -3.5979 N   0  0  0  0  0  0  0  0  0  0  0  0
   -0.8437   13.8189   -2.2524 H   0  0  0  0  0  0  0  0  0  0  0  0
    3.0460   13.6424   -0.8760 H   0  0  0  0  0  0  0  0  0  0  0  0
   -0.9090   15.7242   -4.5579 H   0  0  0  0  0  0  0  0  0  0  0  0
   -1.0833   16.8389   -3.1607 H   0  0  0  0  0  0  0  0  0  0  0  0
    0.8945   16.9282   -5.4271 H   0  0  0  0  0  0  0  0  0  0  0  0
    0.3558   18.2562   -4.3857 H   0  0  0  0  0  0  0  0  0  0  0  0
    2.7703   17.5343   -3.7304 H   0  0  0  0  0  0  0  0  0  0  0  0
  1  3  1  0  0  0  0
  1  7  2  0  0  0  0
  2  7  1  0  0  0  0
  2  8  2  0  0  0  0
  3  4  2  0  0  0  0
  3  5  1  0  0  0  0
  4  8  1  0  0  0  0
  4  9  1  0  0  0  0
  5  6  1  0  0  0  0
  6  9  1  0  0  0  0
  1 10  1  0  0  0  0
  2 11  1  0  0  0  0
  5 12  1  0  0  0  0
  5 13  1  0  0  0  0
  6 14  1  0  0  0  0
  6 15  1  0  0  0  0
  9 16  1  0  0  0  0
M  END
> <FRED Chemgauss4 score>
-6.929842

$$$$
MOL0089_2
  -OEChem-06022418023D

 25 26  0     1  0  0  0  0  0999 V2000
    2.0957   15.4790   -3.4360 C   0  0  0  0  0  0  0  0  0  0  0  0
    2.5005   14.1925   -1.5923 C   0  0  0  0  0  0  0  0  0  0  0  0
    0.8659   14.8884   -3.5620 C   0  0  0  0  0  0  0  0  0  0  0  0
    0.5000   13.9308   -2.6261 C   0  0  0  0  0  0  0  0  0  0  0  0
   -0.2272   15.1132   -4.5438 C   0  0  0  0  0  0  0  0  0  0  0  0
   -1.1359   13.9030   -4.2466 C   0  0  0  0  0  0  0  0  0  0  0  0
   -0.3704   11.0816   -2.7572 C   0  0  0  0  0  0  0  0  0  0  0  0
   -2.7155   12.0011   -2.7910 C   0  0  0  0  0  0  0  0  0  0  0  0
   -1.2821   12.2232   -2.3311 C   0  0  0  0  0  0  0  0  0  0  0  0
    2.9477   15.1422   -2.4471 N   0  0  0  0  0  0  0  0  0  0  0  0
    1.3092   13.5558   -1.6194 N   0  0  0  0  0  0  0  0  0  0  0  0
   -0.7953   13.4527   -2.8998 N   0  0  1  0  0  0  0  0  0  0  0  0
    2.4434   16.2418   -4.1218 H   0  0  0  0  0  0  0  0  0  0  0  0
    3.1778   13.9089   -0.7955 H   0  0  0  0  0  0  0  0  0  0  0  0
   -0.7518   16.0576   -4.3734 H   0  0  0  0  0  0  0  0  0  0  0  0
    0.1641   15.0730   -5.5653 H   0  0  0  0  0  0  0  0  0  0  0  0
   -2.1889   14.2125   -4.2770 H   0  0  0  0  0  0  0  0  0  0  0  0
   -0.9971   13.1081   -4.9871 H   0  0  0  0  0  0  0  0  0  0  0  0
   -0.3765   10.9632   -3.8456 H   0  0  0  0  0  0  0  0  0  0  0  0
    0.6636   11.2552   -2.4385 H   0  0  0  0  0  0  0  0  0  0  0  0
   -0.6976   10.1359   -2.3114 H   0  0  0  0  0  0  0  0  0  0  0  0
   -2.7620   11.8983   -3.8807 H   0  0  0  0  0  0  0  0  0  0  0  0
   -3.3525   12.8436   -2.5025 H   0  0  0  0  0  0  0  0  0  0  0  0
   -3.1387   11.0887   -2.3562 H   0  0  0  0  0  0  0  0  0  0  0  0
   -1.2602   12.3230   -1.2404 H   0  0  0  0  0  0  0  0  0  0  0  0
  1  3  1  0  0  0  0
  1 10  2  0  0  0  0
  2 10  1  0  0  0  0
  2 11  2  0  0  0  0
  3  4  2  0  0  0  0
  3  5  1  0  0  0  0
  4 11  1  0  0  0  0
  4 12  1  0  0  0  0
  5  6  1  0  0  0  0
  6 12  1  0  0  0  0
  7  9  1  0  0  0  0
  8  9  1  0  0  0  0
  9 12  1  0  0  0  0
  1 13  1  0  0  0  0
  2 14  1  0  0  0  0
  5 15  1  0  0  0  0
  5 16  1  0  0  0  0
  6 17  1  0  0  0  0
  6 18  1  0  0  0  0
  7 19  1  0  0  0  0
  7 20  1  0  0  0  0
  7 21  1  0  0  0  0
  8 22  1  0  0  0  0
  8 23  1  0  0  0  0
  8 24  1  0  0  0  0
  9 25  1  0  0  0  0
M  END
> <FRED Chemgauss4 score>
-6.916220

$$$$
MOL0125_1
  -OEChem-06022418023D

 22 23  0     1  0  0  0  0  0999 V2000
    1.7597   15.5161   -3.0602 C   0  0  0  0  0  0  0  0  0  0  0  0
    2.3895   14.2448   -1.2865 C   0  0  0  0  0  0  0  0  0  0  0  0
    0.5380   14.8687   -3.1328 C   0  0  0  0  0  0  0  0  0  0  0  0
    0.3181   13.8857   -2.1746 C   0  0  0  0  0  0  0  0  0  0  0  0
   -0.5171   15.2538   -4.1301 C   0  0  0  0  0  0  0  0  0  0  0  0
   -0.9677   13.1038   -2.1894 C   0  0  0  0  0  0  0  0  0  0  0  0
   -2.0748   13.8003   -2.9884 C   0  0  0  0  0  0  0  0  0  0  0  0
   -2.6365   14.7176   -5.1493 C   0  0  0  0  0  0  0  0  0  0  0  0
    2.7114   15.2246   -2.1504 N   0  0  0  0  0  0  0  0  0  0  0  0
    1.2384   13.5475   -1.2434 N   0  0  0  0  0  0  0  0  0  0  0  0
   -1.5566   14.2213   -4.2975 N   0  0  1  0  0  0  0  0  0  0  0  0
    2.0166   16.3140   -3.7498 H   0  0  0  0  0  0  0  0  0  0  0  0
    3.1370   13.9885   -0.5457 H   0  0  0  0  0  0  0  0  0  0  0  0
   -0.9625   16.2022   -3.8005 H   0  0  0  0  0  0  0  0  0  0  0  0
   -0.0358   15.4245   -5.1011 H   0  0  0  0  0  0  0  0  0  0  0  0
   -0.7592   12.1207   -2.6301 H   0  0  0  0  0  0  0  0  0  0  0  0
   -1.3100   12.9401   -1.1611 H   0  0  0  0  0  0  0  0  0  0  0  0
   -2.9032   13.0921   -3.1119 H   0  0  0  0  0  0  0  0  0  0  0  0
   -2.4635   14.6614   -2.4278 H   0  0  0  0  0  0  0  0  0  0  0  0
   -3.4024   13.9365   -5.2638 H   0  0  0  0  0  0  0  0  0  0  0  0
   -3.0875   15.6084   -4.6876 H   0  0  0  0  0  0  0  0  0  0  0  0
   -2.2318   14.9819   -6.1374 H   0  0  0  0  0  0  0  0  0  0  0  0
  1  3  1  0  0  0  0
  1  9  2  0  0  0  0
  2  9  1  0  0  0  0
  2 10  2  0  0  0  0
  3  4  2  0  0  0  0
  3  5  1  0  0  0  0
  4  6  1  0  0  0  0
  4 10  1  0  0  0  0
  5 11  1  0  0  0  0
  6  7  1  0  0  0  0
  7 11  1  0  0  0  0
  8 11  1  0  0  0  0
  1 12  1  0  0  0  0
  2 13  1  0  0  0  0
  5 14  1  0  0  0  0
  5 15  1  0  0  0  0
  6 16  1  0  0  0  0
  6 17  1  0  0  0  0
  7 18  1  0  0  0  0
  7 19  1  0  0  0  0
  8 20  1  0  0  0  0
  8 21  1  0  0  0  0
  8 22  1  0  0  0  0
M  END
> <FRED Chemgauss4 score>
-6.912042

$$$$
MOL0019_1
  -OEChem-06022418023D

 18 19  0     0  0  0  0  0  0999 V2000
    0.4081   13.7332   -1.8707 C   0  0  0  0  0  0  0  0  0  0  0  0
    0.4935   14.7584   -2.7751 C   0  0  0  0  0  0  0  0  0  0  0  0
    1.7186   15.3866   -2.9306 C   0  0  0  0  0  0  0  0  0  0  0  0
    2.6250   14.0059   -1.3853 C   0  0  0  0  0  0  0  0  0  0  0  0
   -0.5386   15.3898   -3.6383 C   0  0  0  0  0  0  0  0  0  0  0  0
    0.3273   16.3128   -4.5229 C   0  0  0  0  0  0  0  0  0  0  0  0
    1.4759   13.3272   -1.1541 N   0  0  0  0  0  0  0  0  0  0  0  0
    2.8164   15.0317   -2.2431 N   0  0  0  0  0  0  0  0  0  0  0  0
    1.6261   16.4157   -3.8792 N   0  0  0  0  0  0  0  0  0  0  0  0
    3.7532   13.5943   -0.6412 N   0  0  0  0  0  0  0  0  0  0  0  0
   -0.5175   13.2021   -1.6853 H   0  0  0  0  0  0  0  0  0  0  0  0
   -1.0783   14.6533   -4.2401 H   0  0  0  0  0  0  0  0  0  0  0  0
   -1.2387   15.9724   -3.0313 H   0  0  0  0  0  0  0  0  0  0  0  0
    0.4501   15.8722   -5.5197 H   0  0  0  0  0  0  0  0  0  0  0  0
   -0.1364   17.2969   -4.6453 H   0  0  0  0  0  0  0  0  0  0  0  0
    2.4082   16.9643   -4.2013 H   0  0  0  0  0  0  0  0  0  0  0  0
    3.6480   12.8721    0.0407 H   0  0  0  0  0  0  0  0  0  0  0  0
    4.6110   14.0958   -0.7431 H   0  0  0  0  0  0  0  0  0  0  0  0
  1  2  1  0  0  0  0
  1  7  2  0  0  0  0
  2  3  2  0  0  0  0
  2  5  1  0  0  0  0
  3  8  1  0  0  0  0
  3  9  1  0  0  0  0
  4  7  1  0  0  0  0
  4  8  2  0  0  0  0
  4 10  1  0  0  0  0
  5  6  1  0  0  0  0
  6  9  1  0  0  0  0
  1 11  1  0  0  0  0
  5 12  1  0  0  0  0
  5 13  1  0  0  0  0
  6 14  1  0  0  0  0
  6 15  1  0  0  0  0
  9 16  1  0  0  0  0
 10 17  1  0  0  0  0
 10 18  1  0  0  0  0
M  END
> <FRED Chemgauss4 score>
-6.882836

$$$$
MOL0172_4
  -OEChem-06022418023D

 29 31  0     0  0  0  0  0  0999 V2000
   -5.2492   15.8426   -0.5090 C   0  0  0  0  0  0  0  0  0  0  0  0
   -4.1768   15.6593    0.3639 C   0  0  0  0  0  0  0  0  0  0  0  0
   -5.3211   15.1041   -1.6902 C   0  0  0  0  0  0  0  0  0  0  0  0
   -3.1763   14.7376    0.0557 C   0  0  0  0  0  0  0  0  0  0  0  0
   -4.3206   14.1824   -1.9984 C   0  0  0  0  0  0  0  0  0  0  0  0
    0.0645   14.9249   -3.6031 C   0  0  0  0  0  0  0  0  0  0  0  0
    1.2791   14.7196   -3.0040 C   0  0  0  0  0  0  0  0  0  0  0  0
   -3.2482   13.9991   -1.1255 C   0  0  0  0  0  0  0  0  0  0  0  0
    1.3167   13.9286   -1.8671 C   0  0  0  0  0  0  0  0  0  0  0  0
   -0.9187   13.6147   -2.0089 C   0  0  0  0  0  0  0  0  0  0  0  0
    2.6314   15.2431   -3.3299 C   0  0  0  0  0  0  0  0  0  0  0  0
    3.5159   14.4233   -2.3655 C   0  0  0  0  0  0  0  0  0  0  0  0
   -2.1615   12.9977   -1.4610 C   0  0  0  0  0  0  0  0  0  0  0  0
   -1.0676   14.3725   -3.1216 N   0  0  0  0  0  0  0  0  0  0  0  0
    0.2241   13.3554   -1.3369 N   0  0  0  0  0  0  0  0  0  0  0  0
    2.6278   13.8346   -1.3772 N   0  0  0  0  0  0  0  0  0  0  0  0
   -6.0288   16.5594   -0.2682 H   0  0  0  0  0  0  0  0  0  0  0  0
   -4.1212   16.2335    1.2842 H   0  0  0  0  0  0  0  0  0  0  0  0
   -6.1564   15.2458   -2.3695 H   0  0  0  0  0  0  0  0  0  0  0  0
   -2.3444   14.6015    0.7418 H   0  0  0  0  0  0  0  0  0  0  0  0
   -4.3848   13.6115   -2.9210 H   0  0  0  0  0  0  0  0  0  0  0  0
   -0.0473   15.5408   -4.4870 H   0  0  0  0  0  0  0  0  0  0  0  0
    2.9037   15.0591   -4.3729 H   0  0  0  0  0  0  0  0  0  0  0  0
    2.6913   16.3122   -3.1042 H   0  0  0  0  0  0  0  0  0  0  0  0
    4.0290   13.6241   -2.9135 H   0  0  0  0  0  0  0  0  0  0  0  0
    4.2782   15.0507   -1.8930 H   0  0  0  0  0  0  0  0  0  0  0  0
   -1.9327   12.4035   -0.5590 H   0  0  0  0  0  0  0  0  0  0  0  0
   -2.5675   12.2534   -2.1684 H   0  0  0  0  0  0  0  0  0  0  0  0
    2.9043   13.2594   -0.5969 H   0  0  0  0  0  0  0  0  0  0  0  0
  1  2  1  0  0  0  0
  1  3  2  0  0  0  0
  2  4  2  0  0  0  0
  3  5  1  0  0  0  0
  4  8  1  0  0  0  0
  5  8  2  0  0  0  0
  6  7  1  0  0  0  0
  6 14  2  0  0  0  0
  7  9  2  0  0  0  0
  7 11  1  0  0  0  0
  8 13  1  0  0  0  0
  9 15  1  0  0  0  0
  9 16  1  0  0  0  0
 10 13  1  0  0  0  0
 10 14  1  0  0  0  0
 10 15  2  0  0  0  0
 11 12  1  0  0  0  0
 12 16  1  0  0  0  0
  1 17  1  0  0  0  0
  2 18  1  0  0  0  0
  3 19  1  0  0  0  0
  4 20  1  0  0  0  0
  5 21  1  0  0  0  0
  6 22  1  0  0  0  0
 11 23  1  0  0  0  0
 11 24  1  0  0  0  0
 12 25  1  0  0  0  0
 12 26  1  0  0  0  0
 13 27  1  0  0  0  0
 13 28  1  0  0  0  0
 16 29  1  0  0  0  0
M  END
> <FRED Chemgauss4 score>
-6.877947

$$$$
MOL0073_2
  -OEChem-06022418023D

 26 28  0     0  0  0  0  0  0999 V2000
   -3.8033   14.0341   -2.3032 C   0  0  0  0  0  0  0  0  0  0  0  0
   -2.7982   15.3904   -0.5749 C   0  0  0  0  0  0  0  0  0  0  0  0
   -5.0633   14.2642   -1.7511 C   0  0  0  0  0  0  0  0  0  0  0  0
   -4.0582   15.6206   -0.0227 C   0  0  0  0  0  0  0  0  0  0  0  0
   -0.1055   13.9424   -4.1436 C   0  0  0  0  0  0  0  0  0  0  0  0
   -2.6707   14.5971   -1.7151 C   0  0  0  0  0  0  0  0  0  0  0  0
    1.0163   13.9132   -3.3580 C   0  0  0  0  0  0  0  0  0  0  0  0
   -5.1908   15.0575   -0.6109 C   0  0  0  0  0  0  0  0  0  0  0  0
    0.8624   14.1304   -1.9983 C   0  0  0  0  0  0  0  0  0  0  0  0
   -1.3694   14.3593   -2.2853 C   0  0  0  0  0  0  0  0  0  0  0  0
    2.4491   13.7254   -3.7054 C   0  0  0  0  0  0  0  0  0  0  0  0
    3.0880   13.5999   -2.3053 C   0  0  0  0  0  0  0  0  0  0  0  0
   -1.3307   14.1626   -3.6247 N   0  0  0  0  0  0  0  0  0  0  0  0
   -0.3293   14.3598   -1.4232 N   0  0  0  0  0  0  0  0  0  0  0  0
    2.1049   14.0805   -1.3491 N   0  0  0  0  0  0  0  0  0  0  0  0
   -6.4009   15.2785   -0.0807 F   0  0  0  0  0  0  0  0  0  0  0  0
   -3.7203   13.4134   -3.1922 H   0  0  0  0  0  0  0  0  0  0  0  0
   -1.9249   15.8364   -0.1048 H   0  0  0  0  0  0  0  0  0  0  0  0
   -5.9453   13.8259   -2.2087 H   0  0  0  0  0  0  0  0  0  0  0  0
   -4.1583   16.2381    0.8650 H   0  0  0  0  0  0  0  0  0  0  0  0
   -0.0642   13.7938   -5.2157 H   0  0  0  0  0  0  0  0  0  0  0  0
    2.6132   12.8225   -4.3003 H   0  0  0  0  0  0  0  0  0  0  0  0
    2.8314   14.6040   -4.2346 H   0  0  0  0  0  0  0  0  0  0  0  0
    3.3199   12.5498   -2.0904 H   0  0  0  0  0  0  0  0  0  0  0  0
    4.0203   14.1700   -2.2400 H   0  0  0  0  0  0  0  0  0  0  0  0
    2.2287   14.1458   -0.3509 H   0  0  0  0  0  0  0  0  0  0  0  0
  1  3  2  0  0  0  0
  1  6  1  0  0  0  0
  2  4  1  0  0  0  0
  2  6  2  0  0  0  0
  3  8  1  0  0  0  0
  4  8  2  0  0  0  0
  5  7  1  0  0  0  0
  5 13  2  0  0  0  0
  6 10  1  0  0  0  0
  7  9  2  0  0  0  0
  7 11  1  0  0  0  0
  8 16  1  0  0  0  0
  9 14  1  0  0  0  0
  9 15  1  0  0  0  0
 10 13  1  0  0  0  0
 10 14  2  0  0  0  0
 11 12  1  0  0  0  0
 12 15  1  0  0  0  0
  1 17  1  0  0  0  0
  2 18  1  0  0  0  0
  3 19  1  0  0  0  0
  4 20  1  0  0  0  0
  5 21  1  0  0  0  0
 11 22  1  0  0  0  0
 11 23  1  0  0  0  0
 12 24  1  0  0  0  0
 12 25  1  0  0  0  0
 15 26  1  0  0  0  0
M  END
> <FRED Chemgauss4 score>
-6.873372

$$$$
MOL0218_2
  -OEChem-06022418023D

 25 27  0     0  0  0  0  0  0999 V2000
   -4.4974   14.6603   -1.5465 C   0  0  0  0  0  0  0  0  0  0  0  0
   -4.4686   15.0345   -0.2077 C   0  0  0  0  0  0  0  0  0  0  0  0
   -3.3076   14.3863   -2.2118 C   0  0  0  0  0  0  0  0  0  0  0  0
   -3.2340   15.1194    0.4156 C   0  0  0  0  0  0  0  0  0  0  0  0
    0.3037   13.6211   -3.9957 C   0  0  0  0  0  0  0  0  0  0  0  0
    1.4736   13.7263   -3.2909 C   0  0  0  0  0  0  0  0  0  0  0  0
   -2.1250   14.5004   -1.4988 C   0  0  0  0  0  0  0  0  0  0  0  0
    1.3983   14.1098   -1.9616 C   0  0  0  0  0  0  0  0  0  0  0  0
   -0.8544   14.2320   -2.1222 C   0  0  0  0  0  0  0  0  0  0  0  0
    2.8876   13.5398   -3.7090 C   0  0  0  0  0  0  0  0  0  0  0  0
    3.6189   13.6129   -2.3510 C   0  0  0  0  0  0  0  0  0  0  0  0
   -2.0572   14.8610   -0.1977 N   0  0  0  0  0  0  0  0  0  0  0  0
   -0.8935   13.8679   -3.4262 N   0  0  0  0  0  0  0  0  0  0  0  0
    0.2377   14.3738   -1.3398 N   0  0  0  0  0  0  0  0  0  0  0  0
    2.6807   14.1808   -1.3975 N   0  0  0  0  0  0  0  0  0  0  0  0
   -5.4451   14.5836   -2.0709 H   0  0  0  0  0  0  0  0  0  0  0  0
   -5.3831   15.2554    0.3304 H   0  0  0  0  0  0  0  0  0  0  0  0
   -3.3211   14.0924   -3.2564 H   0  0  0  0  0  0  0  0  0  0  0  0
   -3.1564   15.4068    1.4590 H   0  0  0  0  0  0  0  0  0  0  0  0
    0.2824   13.3388   -5.0412 H   0  0  0  0  0  0  0  0  0  0  0  0
    3.0485   12.5741   -4.1963 H   0  0  0  0  0  0  0  0  0  0  0  0
    3.2009   14.3553   -4.3685 H   0  0  0  0  0  0  0  0  0  0  0  0
    3.9047   12.6062   -2.0230 H   0  0  0  0  0  0  0  0  0  0  0  0
    4.5305   14.2150   -2.4211 H   0  0  0  0  0  0  0  0  0  0  0  0
    2.8652   14.3762   -0.4260 H   0  0  0  0  0  0  0  0  0  0  0  0
  1  2  1  0  0  0  0
  1  3  2  0  0  0  0
  2  4  2  0  0  0  0
  3  7  1  0  0  0  0
  4 12  1  0  0  0  0
  5  6  1  0  0  0  0
  5 13  2  0  0  0  0
  6  8  2  0  0  0  0
  6 10  1  0  0  0  0
  7  9  1  0  0  0  0
  7 12  2  0  0  0  0
  8 14  1  0  0  0  0
  8 15  1  0  0  0  0
  9 13  1  0  0  0  0
  9 14  2  0  0  0  0
 10 11  1  0  0  0  0
 11 15  1  0  0  0  0
  1 16  1  0  0  0  0
  2 17  1  0  0  0  0
  3 18  1  0  0  0  0
  4 19  1  0  0  0  0
  5 20  1  0  0  0  0
 10 21  1  0  0  0  0
 10 22  1  0  0  0  0
 11 23  1  0  0  0  0
 11 24  1  0  0  0  0
 15 25  1  0  0  0  0
M  END
> <FRED Chemgauss4 score>
-6.859962

$$$$
MOL0169_1
  -OEChem-06022418023D

 24 25  0     0  0  0  0  0  0999 V2000
    2.1854   15.3571   -3.0890 C   0  0  0  0  0  0  0  0  0  0  0  0
    2.5923   13.9667   -1.3424 C   0  0  0  0  0  0  0  0  0  0  0  0
    0.8921   14.8773   -3.2142 C   0  0  0  0  0  0  0  0  0  0  0  0
    0.5146   13.9041   -2.2959 C   0  0  0  0  0  0  0  0  0  0  0  0
   -3.1773   14.0156   -3.0885 C   0  0  0  0  0  0  0  0  0  0  0  0
   -0.0598   15.4152   -4.2356 C   0  0  0  0  0  0  0  0  0  0  0  0
   -0.8693   13.3091   -2.3176 C   0  0  0  0  0  0  0  0  0  0  0  0
   -1.1989   14.4382   -4.5074 C   0  0  0  0  0  0  0  0  0  0  0  0
   -3.7284   13.3536   -1.8498 C   0  0  0  0  0  0  0  0  0  0  0  0
    3.0642   14.9197   -2.1650 N   0  0  0  0  0  0  0  0  0  0  0  0
    1.3588   13.4268   -1.3515 N   0  0  0  0  0  0  0  0  0  0  0  0
   -1.7917   13.9632   -3.2564 N   0  0  0  0  0  0  0  0  0  0  0  0
   -3.9518   14.5644   -3.8762 O   0  0  0  0  0  0  0  0  0  0  0  0
    2.5648   16.1316   -3.7482 H   0  0  0  0  0  0  0  0  0  0  0  0
    3.2772   13.5933   -0.5909 H   0  0  0  0  0  0  0  0  0  0  0  0
   -0.4659   16.3669   -3.8716 H   0  0  0  0  0  0  0  0  0  0  0  0
    0.4686   15.6138   -5.1754 H   0  0  0  0  0  0  0  0  0  0  0  0
   -0.7997   12.2589   -2.6241 H   0  0  0  0  0  0  0  0  0  0  0  0
   -1.2758   13.3406   -1.3032 H   0  0  0  0  0  0  0  0  0  0  0  0
   -1.9508   14.9120   -5.1468 H   0  0  0  0  0  0  0  0  0  0  0  0
   -0.8298   13.5532   -5.0410 H   0  0  0  0  0  0  0  0  0  0  0  0
   -3.7620   14.0803   -1.0453 H   0  0  0  0  0  0  0  0  0  0  0  0
   -3.0849   12.5244   -1.5750 H   0  0  0  0  0  0  0  0  0  0  0  0
   -4.7270   12.9850   -2.0599 H   0  0  0  0  0  0  0  0  0  0  0  0
  1  3  1  0  0  0  0
  1 10  2  0  0  0  0
  2 10  1  0  0  0  0
  2 11  2  0  0  0  0
  3  4  2  0  0  0  0
  3  6  1  0  0  0  0
  4  7  1  0  0  0  0
  4 11  1  0  0  0  0
  5  9  1  0  0  0  0
  5 12  1  0  0  0  0
  5 13  2  0  0  0  0
  6  8  1  0  0  0  0
  7 12  1  0  0  0  0
  8 12  1  0  0  0  0
  1 14  1  0  0  0  0
  2 15  1  0  0  0  0
  6 16  1  0  0  0  0
  6 17  1  0  0  0  0
  7 18  1  0  0  0  0
  7 19  1  0  0  0  0
  8 20  1  0  0  0  0
  8 21  1  0  0  0  0
  9 22  1  0  0  0  0
  9 23  1  0  0  0  0
  9 24  1  0  0  0  0
M  END
> <FRED Chemgauss4 score>
-6.846013

$$$$
MOL0126_1
  -OEChem-06022418023D

 32 34  0     1  0  0  0  0  0999 V2000
    2.0296   15.0793   -3.4154 C   0  0  0  0  0  0  0  0  0  0  0  0
    2.6668   14.1720   -1.4370 C   0  0  0  0  0  0  0  0  0  0  0  0
    0.9248   14.2416   -3.4916 C   0  0  0  0  0  0  0  0  0  0  0  0
    0.7694   13.3581   -2.4253 C   0  0  0  0  0  0  0  0  0  0  0  0
   -0.3469   12.3479   -2.4015 C   0  0  0  0  0  0  0  0  0  0  0  0
   -1.4824   12.6679   -3.3712 C   0  0  0  0  0  0  0  0  0  0  0  0
   -2.3210   17.0463   -5.5397 C   0  0  0  0  0  0  0  0  0  0  0  0
   -1.1782   17.7977   -4.8636 C   0  0  0  0  0  0  0  0  0  0  0  0
   -0.9180   13.0620   -4.7344 C   0  0  0  0  0  0  0  0  0  0  0  0
   -1.8624   15.5969   -5.6016 C   0  0  0  0  0  0  0  0  0  0  0  0
   -0.1257   16.7393   -4.5680 C   0  0  0  0  0  0  0  0  0  0  0  0
   -0.0507   14.3287   -4.6369 C   0  0  1  0  0  0  0  0  0  0  0  0
    2.9205   15.0699   -2.4035 N   0  0  0  0  0  0  0  0  0  0  0  0
    1.6382   13.3052   -1.3876 N   0  0  0  0  0  0  0  0  0  0  0  0
   -0.9126   15.5074   -4.4915 N   0  0  0  0  0  0  0  0  0  0  0  0
    2.2349   15.8094   -4.1925 H   0  0  0  0  0  0  0  0  0  0  0  0
    3.3652   14.1402   -0.6098 H   0  0  0  0  0  0  0  0  0  0  0  0
    0.0824   11.3716   -2.6592 H   0  0  0  0  0  0  0  0  0  0  0  0
   -0.7507   12.2676   -1.3855 H   0  0  0  0  0  0  0  0  0  0  0  0
   -2.1322   11.7912   -3.4740 H   0  0  0  0  0  0  0  0  0  0  0  0
   -2.1048   13.4751   -2.9676 H   0  0  0  0  0  0  0  0  0  0  0  0
   -3.2582   17.1469   -4.9828 H   0  0  0  0  0  0  0  0  0  0  0  0
   -2.4839   17.4472   -6.5471 H   0  0  0  0  0  0  0  0  0  0  0  0
   -0.7827   18.5611   -5.5437 H   0  0  0  0  0  0  0  0  0  0  0  0
   -1.5086   18.3011   -3.9491 H   0  0  0  0  0  0  0  0  0  0  0  0
   -0.3102   12.2338   -5.1232 H   0  0  0  0  0  0  0  0  0  0  0  0
   -1.7351   13.2077   -5.4515 H   0  0  0  0  0  0  0  0  0  0  0  0
   -2.7226   14.9287   -5.4589 H   0  0  0  0  0  0  0  0  0  0  0  0
   -1.3953   15.3610   -6.5640 H   0  0  0  0  0  0  0  0  0  0  0  0
    0.6353   16.6945   -5.3553 H   0  0  0  0  0  0  0  0  0  0  0  0
    0.3730   16.9666   -3.6156 H   0  0  0  0  0  0  0  0  0  0  0  0
    0.4996   14.4279   -5.5692 H   0  0  0  0  0  0  0  0  0  0  0  0
  1  3  1  0  0  0  0
  1 13  2  0  0  0  0
  2 13  1  0  0  0  0
  2 14  2  0  0  0  0
  3  4  2  0  0  0  0
  3 12  1  0  0  0  0
  4  5  1  0  0  0  0
  4 14  1  0  0  0  0
  5  6  1  0  0  0  0
  6  9  1  0  0  0  0
  7  8  1  0  0  0  0
  7 10  1  0  0  0  0
  8 11  1  0  0  0  0
  9 12  1  0  0  0  0
 10 15  1  0  0  0  0
 11 15  1  0  0  0  0
 12 15  1  0  0  0  0
  1 16  1  0  0  0  0
  2 17  1  0  0  0  0
  5 18  1  0  0  0  0
  5 19  1  0  0  0  0
  6 20  1  0  0  0  0
  6 21  1  0  0  0  0
  7 22  1  0  0  0  0
  7 23  1  0  0  0  0
  8 24  1  0  0  0  0
  8 25  1  0  0  0  0
  9 26  1  0  0  0  0
  9 27  1  0  0  0  0
 10 28  1  0  0  0  0
 10 29  1  0  0  0  0
 11 30  1  0  0  0  0
 11 31  1  0  0  0  0
 12 32  1  0  0  0  0
M  END
> <FRED Chemgauss4 score>
-6.845087

$$$$
MOL0087_1
  -OEChem-06022418023D

 22 23  0     1  0  0  0  0  0999 V2000
    1.9860   14.8027   -3.2684 C   0  0  0  0  0  0  0  0  0  0  0  0
    2.4771   14.0149   -1.1957 C   0  0  0  0  0  0  0  0  0  0  0  0
    0.9718   13.8725   -3.4167 C   0  0  0  0  0  0  0  0  0  0  0  0
    0.7638   13.0245   -2.3348 C   0  0  0  0  0  0  0  0  0  0  0  0
    0.0986   13.8222   -4.6322 C   0  0  0  0  0  0  0  0  0  0  0  0
   -0.2935   11.9498   -2.4108 C   0  0  0  0  0  0  0  0  0  0  0  0
   -0.7137   12.5241   -4.7169 C   0  0  0  0  0  0  0  0  0  0  0  0
   -2.2529   11.0974   -3.5265 C   0  0  0  0  0  0  0  0  0  0  0  0
    2.7617   14.8982   -2.1698 N   0  0  0  0  0  0  0  0  0  0  0  0
    1.5165   13.0711   -1.2119 N   0  0  0  0  0  0  0  0  0  0  0  0
   -1.3334   12.2294   -3.4170 N   0  0  1  0  0  0  0  0  0  0  0  0
    2.2096   15.5218   -4.0501 H   0  0  0  0  0  0  0  0  0  0  0  0
    3.0868   14.0675   -0.3020 H   0  0  0  0  0  0  0  0  0  0  0  0
   -0.5871   14.6787   -4.5974 H   0  0  0  0  0  0  0  0  0  0  0  0
    0.7101   13.9195   -5.5367 H   0  0  0  0  0  0  0  0  0  0  0  0
    0.2128   10.9994   -2.6259 H   0  0  0  0  0  0  0  0  0  0  0  0
   -0.7649   11.8627   -1.4244 H   0  0  0  0  0  0  0  0  0  0  0  0
   -1.4810   12.6518   -5.4906 H   0  0  0  0  0  0  0  0  0  0  0  0
   -0.0674   11.6946   -5.0356 H   0  0  0  0  0  0  0  0  0  0  0  0
   -3.0222   11.3208   -4.2803 H   0  0  0  0  0  0  0  0  0  0  0  0
   -1.6941   10.1992   -3.8281 H   0  0  0  0  0  0  0  0  0  0  0  0
   -2.7339   10.9204   -2.5532 H   0  0  0  0  0  0  0  0  0  0  0  0
  1  3  1  0  0  0  0
  1  9  2  0  0  0  0
  2  9  1  0  0  0  0
  2 10  2  0  0  0  0
  3  4  2  0  0  0  0
  3  5  1  0  0  0  0
  4  6  1  0  0  0  0
  4 10  1  0  0  0  0
  5  7  1  0  0  0  0
  6 11  1  0  0  0  0
  7 11  1  0  0  0  0
  8 11  1  0  0  0  0
  1 12  1  0  0  0  0
  2 13  1  0  0  0  0
  5 14  1  0  0  0  0
  5 15  1  0  0  0  0
  6 16  1  0  0  0  0
  6 17  1  0  0  0  0
  7 18  1  0  0  0  0
  7 19  1  0  0  0  0
  8 20  1  0  0  0  0
  8 21  1  0  0  0  0
  8 22  1  0  0  0  0
M  END
> <FRED Chemgauss4 score>
-6.839283

$$$$
MOL0122_2
  -OEChem-06022418023D

 26 28  0     0  0  0  0  0  0999 V2000
   -3.3704   13.6112   -2.3924 C   0  0  0  0  0  0  0  0  0  0  0  0
   -2.6336   15.1338   -0.6673 C   0  0  0  0  0  0  0  0  0  0  0  0
   -4.6789   13.7081   -1.9191 C   0  0  0  0  0  0  0  0  0  0  0  0
   -3.9421   15.2308   -0.1940 C   0  0  0  0  0  0  0  0  0  0  0  0
    0.4147   13.8977   -4.0233 C   0  0  0  0  0  0  0  0  0  0  0  0
   -2.3477   14.3240   -1.7665 C   0  0  0  0  0  0  0  0  0  0  0  0
    1.4841   14.0281   -3.1773 C   0  0  0  0  0  0  0  0  0  0  0  0
   -4.9648   14.5179   -0.8199 C   0  0  0  0  0  0  0  0  0  0  0  0
    1.2261   14.2708   -1.8377 C   0  0  0  0  0  0  0  0  0  0  0  0
   -0.9964   14.2235   -2.2549 C   0  0  0  0  0  0  0  0  0  0  0  0
    2.9469   14.0003   -3.4383 C   0  0  0  0  0  0  0  0  0  0  0  0
    3.5127   13.9983   -2.0015 C   0  0  0  0  0  0  0  0  0  0  0  0
   -0.8562   13.9881   -3.5813 N   0  0  0  0  0  0  0  0  0  0  0  0
   -0.0160   14.3762   -1.3381 N   0  0  0  0  0  0  0  0  0  0  0  0
    2.4256   14.3905   -1.1204 N   0  0  0  0  0  0  0  0  0  0  0  0
   -6.5793   14.6359   -0.2356 Cl  0  0  0  0  0  0  0  0  0  0  0  0
   -3.1633   12.9756   -3.2501 H   0  0  0  0  0  0  0  0  0  0  0  0
   -1.8471   15.6950   -0.1681 H   0  0  0  0  0  0  0  0  0  0  0  0
   -5.4660   13.1457   -2.4152 H   0  0  0  0  0  0  0  0  0  0  0  0
   -4.1502   15.8648    0.6642 H   0  0  0  0  0  0  0  0  0  0  0  0
    0.5361   13.7193   -5.0848 H   0  0  0  0  0  0  0  0  0  0  0  0
    3.2499   13.1039   -3.9866 H   0  0  0  0  0  0  0  0  0  0  0  0
    3.2546   14.8999   -3.9807 H   0  0  0  0  0  0  0  0  0  0  0  0
    3.8524   12.9910   -1.7323 H   0  0  0  0  0  0  0  0  0  0  0  0
    4.3666   14.6770   -1.9085 H   0  0  0  0  0  0  0  0  0  0  0  0
    2.4820   14.5034   -0.1203 H   0  0  0  0  0  0  0  0  0  0  0  0
  1  3  2  0  0  0  0
  1  6  1  0  0  0  0
  2  4  1  0  0  0  0
  2  6  2  0  0  0  0
  3  8  1  0  0  0  0
  4  8  2  0  0  0  0
  5  7  1  0  0  0  0
  5 13  2  0  0  0  0
  6 10  1  0  0  0  0
  7  9  2  0  0  0  0
  7 11  1  0  0  0  0
  8 16  1  0  0  0  0
  9 14  1  0  0  0  0
  9 15  1  0  0  0  0
 10 13  1  0  0  0  0
 10 14  2  0  0  0  0
 11 12  1  0  0  0  0
 12 15  1  0  0  0  0
  1 17  1  0  0  0  0
  2 18  1  0  0  0  0
  3 19  1  0  0  0  0
  4 20  1  0  0  0  0
  5 21  1  0  0  0  0
 11 22  1  0  0  0  0
 11 23  1  0  0  0  0
 12 24  1  0  0  0  0
 12 25  1  0  0  0  0
 15 26  1  0  0  0  0
M  END
> <FRED Chemgauss4 score>
-6.830926

$$$$
MOL0020_1
  -OEChem-06022418023D

 21 22  0     1  0  0  0  0  0999 V2000
    0.5825   13.5061   -1.9074 C   0  0  0  0  0  0  0  0  0  0  0  0
    2.7689   13.8769   -1.4464 C   0  0  0  0  0  0  0  0  0  0  0  0
    0.5089   14.6573   -2.6757 C   0  0  0  0  0  0  0  0  0  0  0  0
    1.6965   15.3809   -2.8094 C   0  0  0  0  0  0  0  0  0  0  0  0
    0.6212   16.7400   -4.5398 C   0  0  0  0  0  0  0  0  0  0  0  0
   -0.7240   16.3710   -3.9025 C   0  0  1  0  0  0  0  0  0  0  0  0
   -1.8454   16.4122   -4.9349 C   0  0  0  0  0  0  0  0  0  0  0  0
    1.6964   13.0880   -1.2751 N   0  0  0  0  0  0  0  0  0  0  0  0
    2.8349   15.0049   -2.1789 N   0  0  0  0  0  0  0  0  0  0  0  0
   -0.6578   15.0407   -3.3133 N   0  0  0  0  0  0  0  0  0  0  0  0
    1.7088   16.5232   -3.6050 N   0  0  0  0  0  0  0  0  0  0  0  0
   -0.2847   12.8675   -1.7668 H   0  0  0  0  0  0  0  0  0  0  0  0
    3.6795   13.5735   -0.9444 H   0  0  0  0  0  0  0  0  0  0  0  0
    0.7993   16.1415   -5.4423 H   0  0  0  0  0  0  0  0  0  0  0  0
    0.6167   17.7916   -4.8478 H   0  0  0  0  0  0  0  0  0  0  0  0
   -0.9547   17.0934   -3.1086 H   0  0  0  0  0  0  0  0  0  0  0  0
   -1.6397   15.7023   -5.7355 H   0  0  0  0  0  0  0  0  0  0  0  0
   -1.9230   17.4127   -5.3593 H   0  0  0  0  0  0  0  0  0  0  0  0
   -2.7932   16.1517   -4.4646 H   0  0  0  0  0  0  0  0  0  0  0  0
   -1.5161   14.5449   -3.1030 H   0  0  0  0  0  0  0  0  0  0  0  0
    2.5803   17.0269   -3.7124 H   0  0  0  0  0  0  0  0  0  0  0  0
  1  3  1  0  0  0  0
  1  8  2  0  0  0  0
  2  8  1  0  0  0  0
  2  9  2  0  0  0  0
  3  4  2  0  0  0  0
  3 10  1  0  0  0  0
  4  9  1  0  0  0  0
  4 11  1  0  0  0  0
  5  6  1  0  0  0  0
  5 11  1  0  0  0  0
  6  7  1  0  0  0  0
  6 10  1  0  0  0  0
  1 12  1  0  0  0  0
  2 13  1  0  0  0  0
  5 14  1  0  0  0  0
  5 15  1  0  0  0  0
  6 16  1  0  0  0  0
  7 17  1  0  0  0  0
  7 18  1  0  0  0  0
  7 19  1  0  0  0  0
 10 20  1  0  0  0  0
 11 21  1  0  0  0  0
M  END
> <FRED Chemgauss4 score>
-6.823311

$$$$
MOL0136_1
  -OEChem-06022418023D

 28 30  0     1  0  0  0  0  0999 V2000
    0.0430   14.5851   -3.5430 C   0  0  0  0  0  0  0  0  0  0  0  0
    2.2187   15.1520   -3.9545 C   0  0  0  0  0  0  0  0  0  0  0  0
    0.2828   14.6804   -2.1961 C   0  0  0  0  0  0  0  0  0  0  0  0
    1.5677   15.0152   -1.7926 C   0  0  0  0  0  0  0  0  0  0  0  0
   -4.1875   14.8050   -1.5041 C   0  0  0  0  0  0  0  0  0  0  0  0
   -4.0019   15.3288   -0.0832 C   0  0  0  0  0  0  0  0  0  0  0  0
   -2.8187   14.2853   -1.9187 C   0  0  0  0  0  0  0  0  0  0  0  0
   -2.5377   15.0775    0.2453 C   0  0  0  0  0  0  0  0  0  0  0  0
    0.2954   14.9881    0.1292 C   0  0  0  0  0  0  0  0  0  0  0  0
   -0.5868   14.4178   -1.0117 C   0  0  1  0  0  0  0  0  0  0  0  0
    1.0047   14.8260   -4.4575 N   0  0  0  0  0  0  0  0  0  0  0  0
    2.5684   15.2600   -2.6544 N   0  0  0  0  0  0  0  0  0  0  0  0
    1.6520   15.0472   -0.3911 N   0  0  0  0  0  0  0  0  0  0  0  0
   -1.9058   15.0580   -1.0748 N   0  0  0  0  0  0  0  0  0  0  0  0
   -0.9260   14.3072   -3.9396 H   0  0  0  0  0  0  0  0  0  0  0  0
    3.0000   15.3470   -4.6795 H   0  0  0  0  0  0  0  0  0  0  0  0
   -4.9463   14.0172   -1.5502 H   0  0  0  0  0  0  0  0  0  0  0  0
   -4.5101   15.6212   -2.1613 H   0  0  0  0  0  0  0  0  0  0  0  0
   -4.2302   16.4005   -0.0504 H   0  0  0  0  0  0  0  0  0  0  0  0
   -4.6648   14.8220    0.6257 H   0  0  0  0  0  0  0  0  0  0  0  0
   -2.7522   13.2098   -1.7101 H   0  0  0  0  0  0  0  0  0  0  0  0
   -2.6317   14.4468   -2.9850 H   0  0  0  0  0  0  0  0  0  0  0  0
   -2.1277   15.8630    0.8878 H   0  0  0  0  0  0  0  0  0  0  0  0
   -2.4333   14.1138    0.7602 H   0  0  0  0  0  0  0  0  0  0  0  0
   -0.0150   16.0025    0.4112 H   0  0  0  0  0  0  0  0  0  0  0  0
    0.2382   14.3634    1.0270 H   0  0  0  0  0  0  0  0  0  0  0  0
   -0.7001   13.3338   -0.8913 H   0  0  0  0  0  0  0  0  0  0  0  0
    2.4696   15.3468    0.1175 H   0  0  0  0  0  0  0  0  0  0  0  0
  1  3  1  0  0  0  0
  1 11  2  0  0  0  0
  2 11  1  0  0  0  0
  2 12  2  0  0  0  0
  3  4  2  0  0  0  0
  3 10  1  0  0  0  0
  4 12  1  0  0  0  0
  4 13  1  0  0  0  0
  5  6  1  0  0  0  0
  5  7  1  0  0  0  0
  6  8  1  0  0  0  0
  7 14  1  0  0  0  0
  8 14  1  0  0  0  0
  9 10  1  0  0  0  0
  9 13  1  0  0  0  0
 10 14  1  0  0  0  0
  1 15  1  0  0  0  0
  2 16  1  0  0  0  0
  5 17  1  0  0  0  0
  5 18  1  0  0  0  0
  6 19  1  0  0  0  0
  6 20  1  0  0  0  0
  7 21  1  0  0  0  0
  7 22  1  0  0  0  0
  8 23  1  0  0  0  0
  8 24  1  0  0  0  0
  9 25  1  0  0  0  0
  9 26  1  0  0  0  0
 10 27  1  0  0  0  0
 13 28  1  0  0  0  0
M  END
> <FRED Chemgauss4 score>
-6.817969

$$$$
MOL0034_1
  -OEChem-06022418023D

 19 20  0     1  0  0  0  0  0999 V2000
   -1.1479   14.9042   -0.9514 C   0  0  0  0  0  0  0  0  0  0  0  0
   -0.1838   14.8945    1.1204 C   0  0  0  0  0  0  0  0  0  0  0  0
   -2.3859   14.9674   -0.3649 C   0  0  0  0  0  0  0  0  0  0  0  0
   -2.4414   15.0003    1.0202 C   0  0  0  0  0  0  0  0  0  0  0  0
   -4.6332   14.8479    0.3120 C   0  0  0  0  0  0  0  0  0  0  0  0
   -3.7570   15.0618   -0.9503 C   0  0  2  0  0  0  0  0  0  0  0  0
   -4.0452   14.0420   -2.0405 C   0  0  0  0  0  0  0  0  0  0  0  0
   -0.0142   14.8607   -0.2222 N   0  0  0  0  0  0  0  0  0  0  0  0
   -1.3485   14.9660    1.8003 N   0  0  0  0  0  0  0  0  0  0  0  0
   -3.7712   15.0747    1.4602 N   0  0  0  0  0  0  0  0  0  0  0  0
   -1.0173   14.8914   -2.0266 H   0  0  0  0  0  0  0  0  0  0  0  0
    0.7196   14.8614    1.7177 H   0  0  0  0  0  0  0  0  0  0  0  0
   -5.4856   15.5353    0.3200 H   0  0  0  0  0  0  0  0  0  0  0  0
   -5.0271   13.8253    0.3572 H   0  0  0  0  0  0  0  0  0  0  0  0
   -3.9074   16.0788   -1.3332 H   0  0  0  0  0  0  0  0  0  0  0  0
   -3.8953   13.0309   -1.6587 H   0  0  0  0  0  0  0  0  0  0  0  0
   -3.3772   14.1997   -2.8887 H   0  0  0  0  0  0  0  0  0  0  0  0
   -5.0767   14.1390   -2.3828 H   0  0  0  0  0  0  0  0  0  0  0  0
   -4.0508   15.0370    2.4282 H   0  0  0  0  0  0  0  0  0  0  0  0
  1  3  1  0  0  0  0
  1  8  2  0  0  0  0
  2  8  1  0  0  0  0
  2  9  2  0  0  0  0
  3  4  2  0  0  0  0
  3  6  1  0  0  0  0
  4  9  1  0  0  0  0
  4 10  1  0  0  0  0
  5  6  1  0  0  0  0
  5 10  1  0  0  0  0
  6  7  1  0  0  0  0
  1 11  1  0  0  0  0
  2 12  1  0  0  0  0
  5 13  1  0  0  0  0
  5 14  1  0  0  0  0
  6 15  1  0  0  0  0
  7 16  1  0  0  0  0
  7 17  1  0  0  0  0
  7 18  1  0  0  0  0
 10 19  1  0  0  0  0
M  END
> <FRED Chemgauss4 score>
-6.806636

$$$$
MOL0168_3
  -OEChem-06022418023D

 22 23  0     1  0  0  0  0  0999 V2000
   -2.3029   15.1450    1.1476 C   0  0  0  0  0  0  0  0  0  0  0  0
   -0.1101   14.5505    0.8310 C   0  0  0  0  0  0  0  0  0  0  0  0
   -2.5052   15.0963   -0.2052 C   0  0  0  0  0  0  0  0  0  0  0  0
   -1.4136   14.7681   -0.9778 C   0  0  0  0  0  0  0  0  0  0  0  0
   -3.7328   15.2742   -1.0225 C   0  0  0  0  0  0  0  0  0  0  0  0
   -3.1629   15.2844   -2.4569 C   0  0  0  0  0  0  0  0  0  0  0  0
   -0.4942   13.5646   -4.3879 C   0  0  0  0  0  0  0  0  0  0  0  0
   -1.0973   14.8833    1.7003 N   0  0  0  0  0  0  0  0  0  0  0  0
   -0.1965   14.4588   -0.5122 N   0  0  0  0  0  0  0  0  0  0  0  0
   -1.7934   14.6717   -2.3538 N   0  0  1  0  0  0  0  0  0  0  0  0
    0.6429   15.3375   -2.8415 O   0  0  0  0  0  0  0  0  0  0  0  0
   -1.1868   16.0840   -4.4164 O   0  0  0  0  0  0  0  0  0  0  0  0
   -0.6265   15.1016   -3.5058 S   0  0  0  0  0  0  0  0  0  0  0  0
   -3.0987   15.3843    1.8424 H   0  0  0  0  0  0  0  0  0  0  0  0
    0.8565   14.3295    1.2679 H   0  0  0  0  0  0  0  0  0  0  0  0
   -4.4075   14.4235   -0.8809 H   0  0  0  0  0  0  0  0  0  0  0  0
   -4.2604   16.2052   -0.7973 H   0  0  0  0  0  0  0  0  0  0  0  0
   -3.7926   14.7134   -3.1452 H   0  0  0  0  0  0  0  0  0  0  0  0
   -3.0804   16.3166   -2.8188 H   0  0  0  0  0  0  0  0  0  0  0  0
    0.2414   13.6870   -5.1845 H   0  0  0  0  0  0  0  0  0  0  0  0
   -0.1741   12.7919   -3.6872 H   0  0  0  0  0  0  0  0  0  0  0  0
   -1.4726   13.3216   -4.8048 H   0  0  0  0  0  0  0  0  0  0  0  0
  1  3  1  0  0  0  0
  1  8  2  0  0  0  0
  2  8  1  0  0  0  0
  2  9  2  0  0  0  0
  3  4  2  0  0  0  0
  3  5  1  0  0  0  0
  4  9  1  0  0  0  0
  4 10  1  0  0  0  0
  5  6  1  0  0  0  0
  6 10  1  0  0  0  0
  7 13  1  0  0  0  0
 10 13  1  0  0  0  0
 11 13  2  0  0  0  0
 12 13  2  0  0  0  0
  1 14  1  0  0  0  0
  2 15  1  0  0  0  0
  5 16  1  0  0  0  0
  5 17  1  0  0  0  0
  6 18  1  0  0  0  0
  6 19  1  0  0  0  0
  7 20  1  0  0  0  0
  7 21  1  0  0  0  0
  7 22  1  0  0  0  0
M  END
> <FRED Chemgauss4 score>
-6.795381

$$$$
MOL0112_14
  -OEChem-06022418023D

 31 33  0     0  0  0  0  0  0999 V2000
   -6.6267   14.4194    0.1876 C   0  0  0  0  0  0  0  0  0  0  0  0
   -6.7184   14.5482   -1.1982 C   0  0  0  0  0  0  0  0  0  0  0  0
   -5.3770   14.4239    0.8073 C   0  0  0  0  0  0  0  0  0  0  0  0
   -5.5605   14.6814   -1.9644 C   0  0  0  0  0  0  0  0  0  0  0  0
   -4.2191   14.5571    0.0412 C   0  0  0  0  0  0  0  0  0  0  0  0
    0.7293   14.8960   -3.8103 C   0  0  0  0  0  0  0  0  0  0  0  0
    1.7711   14.2382   -3.2117 C   0  0  0  0  0  0  0  0  0  0  0  0
   -4.3108   14.6859   -1.3447 C   0  0  0  0  0  0  0  0  0  0  0  0
    1.5170   13.5577   -2.0318 C   0  0  0  0  0  0  0  0  0  0  0  0
   -0.6536   14.1851   -2.1349 C   0  0  0  0  0  0  0  0  0  0  0  0
    3.2080   14.1424   -3.5793 C   0  0  0  0  0  0  0  0  0  0  0  0
    3.7083   13.0789   -2.5779 C   0  0  0  0  0  0  0  0  0  0  0  0
   -3.0640   14.8291   -2.1688 C   0  0  0  0  0  0  0  0  0  0  0  0
   -0.5138   14.8823   -3.2876 N   0  0  0  0  0  0  0  0  0  0  0  0
    0.3029   13.5112   -1.4597 N   0  0  0  0  0  0  0  0  0  0  0  0
    2.6889   12.9562   -1.5495 N   0  0  0  0  0  0  0  0  0  0  0  0
   -1.9496   14.1622   -1.5729 N   0  0  0  0  0  0  0  0  0  0  0  0
   -7.5285   14.3170    0.7842 H   0  0  0  0  0  0  0  0  0  0  0  0
   -7.6914   14.5458   -1.6808 H   0  0  0  0  0  0  0  0  0  0  0  0
   -5.3053   14.3248    1.8864 H   0  0  0  0  0  0  0  0  0  0  0  0
   -5.6415   14.7810   -3.0436 H   0  0  0  0  0  0  0  0  0  0  0  0
   -3.2497   14.5595    0.5326 H   0  0  0  0  0  0  0  0  0  0  0  0
    0.8523   15.4591   -4.7273 H   0  0  0  0  0  0  0  0  0  0  0  0
    3.3470   13.8127   -4.6127 H   0  0  0  0  0  0  0  0  0  0  0  0
    3.7083   15.1019   -3.4149 H   0  0  0  0  0  0  0  0  0  0  0  0
    3.8315   12.1136   -3.0838 H   0  0  0  0  0  0  0  0  0  0  0  0
    4.6758   13.3593   -2.1492 H   0  0  0  0  0  0  0  0  0  0  0  0
   -3.2124   14.4092   -3.1697 H   0  0  0  0  0  0  0  0  0  0  0  0
   -2.7951   15.8831   -2.2949 H   0  0  0  0  0  0  0  0  0  0  0  0
    2.7286   12.3556   -0.7408 H   0  0  0  0  0  0  0  0  0  0  0  0
   -2.0632   13.6504   -0.7196 H   0  0  0  0  0  0  0  0  0  0  0  0
  1  2  1  0  0  0  0
  1  3  2  0  0  0  0
  2  4  2  0  0  0  0
  3  5  1  0  0  0  0
  4  8  1  0  0  0  0
  5  8  2  0  0  0  0
  6  7  1  0  0  0  0
  6 14  2  0  0  0  0
  7  9  2  0  0  0  0
  7 11  1  0  0  0  0
  8 13  1  0  0  0  0
  9 15  1  0  0  0  0
  9 16  1  0  0  0  0
 10 14  1  0  0  0  0
 10 15  2  0  0  0  0
 10 17  1  0  0  0  0
 11 12  1  0  0  0  0
 12 16  1  0  0  0  0
 13 17  1  0  0  0  0
  1 18  1  0  0  0  0
  2 19  1  0  0  0  0
  3 20  1  0  0  0  0
  4 21  1  0  0  0  0
  5 22  1  0  0  0  0
  6 23  1  0  0  0  0
 11 24  1  0  0  0  0
 11 25  1  0  0  0  0
 12 26  1  0  0  0  0
 12 27  1  0  0  0  0
 13 28  1  0  0  0  0
 13 29  1  0  0  0  0
 16 30  1  0  0  0  0
 17 31  1  0  0  0  0
M  END
> <FRED Chemgauss4 score>
-6.795225

$$$$
MOL0142_1
  -OEChem-06022418023D

 21 22  0     1  0  0  0  0  0999 V2000
   -0.0309   14.9645    1.2883 C   0  0  0  0  0  0  0  0  0  0  0  0
   -2.2640   14.7238    0.9956 C   0  0  0  0  0  0  0  0  0  0  0  0
    0.2079   14.7529   -0.0603 C   0  0  0  0  0  0  0  0  0  0  0  0
   -0.9210   14.5548   -0.8588 C   0  0  0  0  0  0  0  0  0  0  0  0
    1.6738   14.3010   -1.9492 C   0  0  0  0  0  0  0  0  0  0  0  0
    0.5089   14.7307   -2.8514 C   0  0  1  0  0  0  0  0  0  0  0  0
    0.6096   14.0887   -4.2071 C   0  0  0  0  0  0  0  0  0  0  0  0
   -1.2551   14.9531    1.8510 N   0  0  0  0  0  0  0  0  0  0  0  0
   -2.1687   14.5222   -0.3325 N   0  0  0  0  0  0  0  0  0  0  0  0
    1.4831   14.7811   -0.5937 N   0  0  0  0  0  0  0  0  0  0  0  0
   -0.7619   14.3822   -2.2316 N   0  0  0  0  0  0  0  0  0  0  0  0
    0.7845   15.1488    1.9816 H   0  0  0  0  0  0  0  0  0  0  0  0
   -3.2614   14.7007    1.4169 H   0  0  0  0  0  0  0  0  0  0  0  0
    1.7647   13.2075   -1.9314 H   0  0  0  0  0  0  0  0  0  0  0  0
    2.6185   14.6952   -2.3401 H   0  0  0  0  0  0  0  0  0  0  0  0
    0.5434   15.8266   -2.9733 H   0  0  0  0  0  0  0  0  0  0  0  0
    0.5773   13.0040   -4.1081 H   0  0  0  0  0  0  0  0  0  0  0  0
    1.5468   14.3734   -4.6844 H   0  0  0  0  0  0  0  0  0  0  0  0
   -0.2207   14.4125   -4.8342 H   0  0  0  0  0  0  0  0  0  0  0  0
    2.2811   14.8539    0.0257 H   0  0  0  0  0  0  0  0  0  0  0  0
   -1.5956   14.2764   -2.7969 H   0  0  0  0  0  0  0  0  0  0  0  0
  1  3  1  0  0  0  0
  1  8  2  0  0  0  0
  2  8  1  0  0  0  0
  2  9  2  0  0  0  0
  3  4  2  0  0  0  0
  3 10  1  0  0  0  0
  4  9  1  0  0  0  0
  4 11  1  0  0  0  0
  5  6  1  0  0  0  0
  5 10  1  0  0  0  0
  6  7  1  0  0  0  0
  6 11  1  0  0  0  0
  1 12  1  0  0  0  0
  2 13  1  0  0  0  0
  5 14  1  0  0  0  0
  5 15  1  0  0  0  0
  6 16  1  0  0  0  0
  7 17  1  0  0  0  0
  7 18  1  0  0  0  0
  7 19  1  0  0  0  0
 10 20  1  0  0  0  0
 11 21  1  0  0  0  0
M  END
> <FRED Chemgauss4 score>
-6.788029

$$$$
MOL0118_3
  -OEChem-06022418023D

 25 27  0     0  0  0  0  0  0999 V2000
   -3.1684   15.1704    1.4988 C   0  0  0  0  0  0  0  0  0  0  0  0
   -0.9464   15.0196    0.9823 C   0  0  0  0  0  0  0  0  0  0  0  0
   -3.4830   14.9912    0.1759 C   0  0  0  0  0  0  0  0  0  0  0  0
   -2.4325   14.8282   -0.7057 C   0  0  0  0  0  0  0  0  0  0  0  0
   -2.1450   14.4693   -3.1286 C   0  0  0  0  0  0  0  0  0  0  0  0
   -4.8106   14.9410   -0.4923 C   0  0  0  0  0  0  0  0  0  0  0  0
   -0.0254   13.1745   -2.4415 C   0  0  0  0  0  0  0  0  0  0  0  0
    0.2255   13.7279   -3.8120 C   0  0  0  0  0  0  0  0  0  0  0  0
   -4.4120   14.7160   -1.9579 C   0  0  0  0  0  0  0  0  0  0  0  0
   -0.6603   14.4569   -2.8598 C   0  0  0  0  0  0  0  0  0  0  0  0
   -1.8919   15.1892    1.9364 N   0  0  0  0  0  0  0  0  0  0  0  0
   -1.1403   14.8364   -0.3408 N   0  0  0  0  0  0  0  0  0  0  0  0
   -2.9374   14.6579   -2.0096 N   0  0  0  0  0  0  0  0  0  0  0  0
   -2.5637   14.3181   -4.2771 O   0  0  0  0  0  0  0  0  0  0  0  0
   -3.9293   15.3055    2.2582 H   0  0  0  0  0  0  0  0  0  0  0  0
    0.0830   15.0328    1.3201 H   0  0  0  0  0  0  0  0  0  0  0  0
   -5.4113   14.1089   -0.1133 H   0  0  0  0  0  0  0  0  0  0  0  0
   -5.3496   15.8850   -0.3691 H   0  0  0  0  0  0  0  0  0  0  0  0
   -0.6298   12.2791   -2.3628 H   0  0  0  0  0  0  0  0  0  0  0  0
    0.7772   13.2380   -1.7169 H   0  0  0  0  0  0  0  0  0  0  0  0
    1.1973   14.1635   -4.0101 H   0  0  0  0  0  0  0  0  0  0  0  0
   -0.2090   13.2022   -4.6536 H   0  0  0  0  0  0  0  0  0  0  0  0
   -4.8199   13.7771   -2.3483 H   0  0  0  0  0  0  0  0  0  0  0  0
   -4.7596   15.5320   -2.6012 H   0  0  0  0  0  0  0  0  0  0  0  0
   -0.3023   15.3710   -2.4262 H   0  0  0  0  0  0  0  0  0  0  0  0
  1  3  1  0  0  0  0
  1 11  2  0  0  0  0
  2 11  1  0  0  0  0
  2 12  2  0  0  0  0
  3  4  2  0  0  0  0
  3  6  1  0  0  0  0
  4 12  1  0  0  0  0
  4 13  1  0  0  0  0
  5 10  1  0  0  0  0
  5 13  1  0  0  0  0
  5 14  2  0  0  0  0
  6  9  1  0  0  0  0
  7  8  1  0  0  0  0
  7 10  1  0  0  0  0
  8 10  1  0  0  0  0
  9 13  1  0  0  0  0
  1 15  1  0  0  0  0
  2 16  1  0  0  0  0
  6 17  1  0  0  0  0
  6 18  1  0  0  0  0
  7 19  1  0  0  0  0
  7 20  1  0  0  0  0
  8 21  1  0  0  0  0
  8 22  1  0  0  0  0
  9 23  1  0  0  0  0
  9 24  1  0  0  0  0
 10 25  1  0  0  0  0
M  END
> <FRED Chemgauss4 score>
-6.786219

$$$$
MOL0055_4
  -OEChem-06022418023D

 25 26  0     1  0  0  0  0  0999 V2000
   -2.6800   14.9410    1.3643 C   0  0  0  0  0  0  0  0  0  0  0  0
   -0.5125   14.9242    0.6433 C   0  0  0  0  0  0  0  0  0  0  0  0
   -3.1001   14.8981    0.0609 C   0  0  0  0  0  0  0  0  0  0  0  0
   -2.1363   14.8817   -0.9380 C   0  0  0  0  0  0  0  0  0  0  0  0
   -4.4670   14.9002   -0.5230 C   0  0  0  0  0  0  0  0  0  0  0  0
   -4.1556   14.5325   -1.9882 C   0  0  0  0  0  0  0  0  0  0  0  0
   -0.7021   12.6496   -4.5473 C   0  0  0  0  0  0  0  0  0  0  0  0
   -1.4901   13.0528   -3.3091 C   0  0  0  0  0  0  0  0  0  0  0  0
   -2.0225   14.4786   -3.3881 C   0  0  0  0  0  0  0  0  0  0  0  0
   -1.3716   14.9515    1.6892 N   0  0  0  0  0  0  0  0  0  0  0  0
   -0.8180   14.8910   -0.6723 N   0  0  0  0  0  0  0  0  0  0  0  0
   -2.7488   14.8590   -2.2049 N   0  0  2  0  0  0  0  0  0  0  0  0
   -3.3747   14.9692    2.1948 H   0  0  0  0  0  0  0  0  0  0  0  0
    0.5425   14.9320    0.8905 H   0  0  0  0  0  0  0  0  0  0  0  0
   -5.1203   14.1582   -0.0555 H   0  0  0  0  0  0  0  0  0  0  0  0
   -4.9103   15.8984   -0.4511 H   0  0  0  0  0  0  0  0  0  0  0  0
   -4.3130   13.4570   -2.1429 H   0  0  0  0  0  0  0  0  0  0  0  0
   -4.8087   15.0717   -2.6825 H   0  0  0  0  0  0  0  0  0  0  0  0
   -1.3216   12.7211   -5.4470 H   0  0  0  0  0  0  0  0  0  0  0  0
    0.1603   13.3115   -4.6769 H   0  0  0  0  0  0  0  0  0  0  0  0
   -0.3285   11.6242   -4.4662 H   0  0  0  0  0  0  0  0  0  0  0  0
   -0.8355   12.9674   -2.4340 H   0  0  0  0  0  0  0  0  0  0  0  0
   -2.3185   12.3492   -3.1645 H   0  0  0  0  0  0  0  0  0  0  0  0
   -1.1916   15.1832   -3.4938 H   0  0  0  0  0  0  0  0  0  0  0  0
   -2.6893   14.6068   -4.2466 H   0  0  0  0  0  0  0  0  0  0  0  0
  1  3  1  0  0  0  0
  1 10  2  0  0  0  0
  2 10  1  0  0  0  0
  2 11  2  0  0  0  0
  3  4  2  0  0  0  0
  3  5  1  0  0  0  0
  4 11  1  0  0  0  0
  4 12  1  0  0  0  0
  5  6  1  0  0  0  0
  6 12  1  0  0  0  0
  7  8  1  0  0  0  0
  8  9  1  0  0  0  0
  9 12  1  0  0  0  0
  1 13  1  0  0  0  0
  2 14  1  0  0  0  0
  5 15  1  0  0  0  0
  5 16  1  0  0  0  0
  6 17  1  0  0  0  0
  6 18  1  0  0  0  0
  7 19  1  0  0  0  0
  7 20  1  0  0  0  0
  7 21  1  0  0  0  0
  8 22  1  0  0  0  0
  8 23  1  0  0  0  0
  9 24  1  0  0  0  0
  9 25  1  0  0  0  0
M  END
> <FRED Chemgauss4 score>
-6.781686

$$$$
MOL0188_1
  -OEChem-06022418023D

 22 23  0     1  0  0  0  0  0999 V2000
    1.8468   15.4076   -3.1631 C   0  0  0  0  0  0  0  0  0  0  0  0
    2.2775   14.0942   -1.3433 C   0  0  0  0  0  0  0  0  0  0  0  0
    0.5607   14.9328   -3.1899 C   0  0  0  0  0  0  0  0  0  0  0  0
    0.1981   14.0003   -2.2296 C   0  0  0  0  0  0  0  0  0  0  0  0
   -1.7418   14.5010   -3.3761 C   0  0  0  0  0  0  0  0  0  0  0  0
   -0.5740   15.1950   -4.1254 C   0  0  1  0  0  0  0  0  0  0  0  0
   -2.0301   16.8695   -5.2763 C   0  0  0  0  0  0  0  0  0  0  0  0
   -0.8427   16.6682   -4.3887 C   0  0  0  0  0  0  0  0  0  0  0  0
    2.7375   15.0037   -2.2342 N   0  0  0  0  0  0  0  0  0  0  0  0
    1.0408   13.5547   -1.2833 N   0  0  0  0  0  0  0  0  0  0  0  0
   -1.1381   13.6092   -2.3999 N   0  0  0  0  0  0  0  0  0  0  0  0
    2.2140   16.1246   -3.8873 H   0  0  0  0  0  0  0  0  0  0  0  0
    2.9840   13.7603   -0.5926 H   0  0  0  0  0  0  0  0  0  0  0  0
   -2.3712   15.2309   -2.8523 H   0  0  0  0  0  0  0  0  0  0  0  0
   -2.3807   13.9464   -4.0713 H   0  0  0  0  0  0  0  0  0  0  0  0
   -0.3808   14.6706   -5.0693 H   0  0  0  0  0  0  0  0  0  0  0  0
   -1.8712   16.3570   -6.2323 H   0  0  0  0  0  0  0  0  0  0  0  0
   -2.1849   17.9337   -5.4832 H   0  0  0  0  0  0  0  0  0  0  0  0
   -2.9339   16.4567   -4.8157 H   0  0  0  0  0  0  0  0  0  0  0  0
   -1.0107   17.1835   -3.4368 H   0  0  0  0  0  0  0  0  0  0  0  0
    0.0387   17.1213   -4.8550 H   0  0  0  0  0  0  0  0  0  0  0  0
   -1.6332   12.9953   -1.7718 H   0  0  0  0  0  0  0  0  0  0  0  0
  1  3  1  0  0  0  0
  1  9  2  0  0  0  0
  2  9  1  0  0  0  0
  2 10  2  0  0  0  0
  3  4  2  0  0  0  0
  3  6  1  0  0  0  0
  4 10  1  0  0  0  0
  4 11  1  0  0  0  0
  5  6  1  0  0  0  0
  5 11  1  0  0  0  0
  6  8  1  0  0  0  0
  7  8  1  0  0  0  0
  1 12  1  0  0  0  0
  2 13  1  0  0  0  0
  5 14  1  0  0  0  0
  5 15  1  0  0  0  0
  6 16  1  0  0  0  0
  7 17  1  0  0  0  0
  7 18  1  0  0  0  0
  7 19  1  0  0  0  0
  8 20  1  0  0  0  0
  8 21  1  0  0  0  0
 11 22  1  0  0  0  0
M  END
> <FRED Chemgauss4 score>
-6.773761

$$$$
MOL0058_1
  -OEChem-06022418023D

 20 21  0     0  0  0  0  0  0999 V2000
    1.6585   15.3198   -3.1783 C   0  0  0  0  0  0  0  0  0  0  0  0
    0.4707   14.6087   -3.1817 C   0  0  0  0  0  0  0  0  0  0  0  0
    0.4006   13.5463   -2.2865 C   0  0  0  0  0  0  0  0  0  0  0  0
    2.5301   13.9614   -1.5794 C   0  0  0  0  0  0  0  0  0  0  0  0
   -0.6961   15.0004   -4.0391 C   0  0  0  0  0  0  0  0  0  0  0  0
   -0.8402   12.6944   -2.2351 C   0  0  0  0  0  0  0  0  0  0  0  0
   -2.0501   13.3917   -2.8623 C   0  0  0  0  0  0  0  0  0  0  0  0
    2.7114   15.0192   -2.3910 N   0  0  0  0  0  0  0  0  0  0  0  0
    1.4269   13.1958   -1.4789 N   0  0  0  0  0  0  0  0  0  0  0  0
   -1.7104   13.9455   -4.1764 N   0  0  0  0  0  0  0  0  0  0  0  0
    3.5851   13.6264   -0.7630 O   0  0  0  0  0  0  0  0  0  0  0  0
    1.8042   16.1761   -3.8291 H   0  0  0  0  0  0  0  0  0  0  0  0
   -1.1845   15.8875   -3.6156 H   0  0  0  0  0  0  0  0  0  0  0  0
   -0.3294   15.2800   -5.0360 H   0  0  0  0  0  0  0  0  0  0  0  0
   -0.6577   11.7469   -2.7533 H   0  0  0  0  0  0  0  0  0  0  0  0
   -1.0495   12.4645   -1.1836 H   0  0  0  0  0  0  0  0  0  0  0  0
   -2.8957   12.6949   -2.9575 H   0  0  0  0  0  0  0  0  0  0  0  0
   -2.3890   14.2020   -2.2037 H   0  0  0  0  0  0  0  0  0  0  0  0
   -2.5486   14.3404   -4.5995 H   0  0  0  0  0  0  0  0  0  0  0  0
    3.3470   12.8589   -0.2277 H   0  0  0  0  0  0  0  0  0  0  0  0
  1  2  1  0  0  0  0
  1  8  2  0  0  0  0
  2  3  2  0  0  0  0
  2  5  1  0  0  0  0
  3  6  1  0  0  0  0
  3  9  1  0  0  0  0
  4  8  1  0  0  0  0
  4  9  2  0  0  0  0
  4 11  1  0  0  0  0
  5 10  1  0  0  0  0
  6  7  1  0  0  0  0
  7 10  1  0  0  0  0
  1 12  1  0  0  0  0
  5 13  1  0  0  0  0
  5 14  1  0  0  0  0
  6 15  1  0  0  0  0
  6 16  1  0  0  0  0
  7 17  1  0  0  0  0
  7 18  1  0  0  0  0
 10 19  1  0  0  0  0
 11 20  1  0  0  0  0
M  END
> <FRED Chemgauss4 score>
-6.773753

$$$$
MOL0198_1
  -OEChem-06022418023D

 20 21  0     1  0  0  0  0  0999 V2000
    0.0360   13.8578   -2.3287 C   0  0  0  0  0  0  0  0  0  0  0  0
    2.0449   13.9325   -1.2434 C   0  0  0  0  0  0  0  0  0  0  0  0
    0.3739   14.9991   -3.0080 C   0  0  0  0  0  0  0  0  0  0  0  0
    1.6050   15.5716   -2.7406 C   0  0  0  0  0  0  0  0  0  0  0  0
   -0.3810   15.7896   -4.0179 C   0  0  0  0  0  0  0  0  0  0  0  0
    0.6436   16.8948   -4.3927 C   0  0  2  0  0  0  0  0  0  0  0  0
    1.0937   16.7903   -5.8453 C   0  0  0  0  0  0  0  0  0  0  0  0
    0.8660   13.2932   -1.4282 N   0  0  0  0  0  0  0  0  0  0  0  0
    2.4741   15.0584   -1.8541 N   0  0  0  0  0  0  0  0  0  0  0  0
    1.7927   16.7239   -3.5117 N   0  0  0  0  0  0  0  0  0  0  0  0
    2.0137   17.8341   -6.1096 O   0  0  0  0  0  0  0  0  0  0  0  0
   -0.9116   13.3554   -2.4800 H   0  0  0  0  0  0  0  0  0  0  0  0
    2.7215   13.4898   -0.5220 H   0  0  0  0  0  0  0  0  0  0  0  0
   -0.6661   15.1702   -4.8738 H   0  0  0  0  0  0  0  0  0  0  0  0
   -1.2726   16.2296   -3.5594 H   0  0  0  0  0  0  0  0  0  0  0  0
    0.1976   17.8830   -4.2290 H   0  0  0  0  0  0  0  0  0  0  0  0
    0.2352   16.8908   -6.5101 H   0  0  0  0  0  0  0  0  0  0  0  0
    1.5804   15.8298   -6.0173 H   0  0  0  0  0  0  0  0  0  0  0  0
    2.6231   17.2952   -3.4999 H   0  0  0  0  0  0  0  0  0  0  0  0
    2.2851   17.7463   -7.0392 H   0  0  0  0  0  0  0  0  0  0  0  0
  1  3  1  0  0  0  0
  1  8  2  0  0  0  0
  2  8  1  0  0  0  0
  2  9  2  0  0  0  0
  3  4  2  0  0  0  0
  3  5  1  0  0  0  0
  4  9  1  0  0  0  0
  4 10  1  0  0  0  0
  5  6  1  0  0  0  0
  6  7  1  0  0  0  0
  6 10  1  0  0  0  0
  7 11  1  0  0  0  0
  1 12  1  0  0  0  0
  2 13  1  0  0  0  0
  5 14  1  0  0  0  0
  5 15  1  0  0  0  0
  6 16  1  0  0  0  0
  7 17  1  0  0  0  0
  7 18  1  0  0  0  0
 10 19  1  0  0  0  0
 11 20  1  0  0  0  0
M  END
> <FRED Chemgauss4 score>
-6.765031

$$$$
MOL0117_6
  -OEChem-06022418023D

 27 29  0     0  0  0  0  0  0999 V2000
   -4.0237   14.9790    0.3405 C   0  0  0  0  0  0  0  0  0  0  0  0
   -5.1708   14.9130   -0.4502 C   0  0  0  0  0  0  0  0  0  0  0  0
   -2.7667   14.8033   -0.2382 C   0  0  0  0  0  0  0  0  0  0  0  0
   -5.0611   14.6710   -1.8195 C   0  0  0  0  0  0  0  0  0  0  0  0
   -0.0819   13.9869   -4.0458 C   0  0  0  0  0  0  0  0  0  0  0  0
   -2.6569   14.5613   -1.6075 C   0  0  0  0  0  0  0  0  0  0  0  0
    1.0472   14.0437   -3.2724 C   0  0  0  0  0  0  0  0  0  0  0  0
   -3.8041   14.4952   -2.3982 C   0  0  0  0  0  0  0  0  0  0  0  0
    0.8942   14.2896   -1.9174 C   0  0  0  0  0  0  0  0  0  0  0  0
   -1.3497   14.3825   -2.1855 C   0  0  0  0  0  0  0  0  0  0  0  0
    2.4851   13.9285   -3.6306 C   0  0  0  0  0  0  0  0  0  0  0  0
    3.1436   13.8788   -2.2348 C   0  0  0  0  0  0  0  0  0  0  0  0
   -1.3126   14.1510   -3.5195 N   0  0  0  0  0  0  0  0  0  0  0  0
   -0.3031   14.4664   -1.3355 N   0  0  0  0  0  0  0  0  0  0  0  0
    2.1437   14.3289   -1.2811 N   0  0  0  0  0  0  0  0  0  0  0  0
   -3.7265   14.2584   -3.7389 O   0  0  0  0  0  0  0  0  0  0  0  0
   -4.1094   15.1677    1.4066 H   0  0  0  0  0  0  0  0  0  0  0  0
   -6.1495   15.0497    0.0004 H   0  0  0  0  0  0  0  0  0  0  0  0
   -1.8823   14.8576    0.3924 H   0  0  0  0  0  0  0  0  0  0  0  0
   -5.9593   14.6208   -2.4291 H   0  0  0  0  0  0  0  0  0  0  0  0
   -0.0425   13.8110   -5.1139 H   0  0  0  0  0  0  0  0  0  0  0  0
    2.6950   13.0202   -4.2024 H   0  0  0  0  0  0  0  0  0  0  0  0
    2.8111   14.8124   -4.1878 H   0  0  0  0  0  0  0  0  0  0  0  0
    3.4375   12.8501   -1.9939 H   0  0  0  0  0  0  0  0  0  0  0  0
    4.0421   14.5029   -2.1956 H   0  0  0  0  0  0  0  0  0  0  0  0
    2.2731   14.4290   -0.2865 H   0  0  0  0  0  0  0  0  0  0  0  0
   -4.6147   14.2446   -4.1274 H   0  0  0  0  0  0  0  0  0  0  0  0
  1  2  1  0  0  0  0
  1  3  2  0  0  0  0
  2  4  2  0  0  0  0
  3  6  1  0  0  0  0
  4  8  1  0  0  0  0
  5  7  1  0  0  0  0
  5 13  2  0  0  0  0
  6  8  2  0  0  0  0
  6 10  1  0  0  0  0
  7  9  2  0  0  0  0
  7 11  1  0  0  0  0
  8 16  1  0  0  0  0
  9 14  1  0  0  0  0
  9 15  1  0  0  0  0
 10 13  1  0  0  0  0
 10 14  2  0  0  0  0
 11 12  1  0  0  0  0
 12 15  1  0  0  0  0
  1 17  1  0  0  0  0
  2 18  1  0  0  0  0
  3 19  1  0  0  0  0
  4 20  1  0  0  0  0
  5 21  1  0  0  0  0
 11 22  1  0  0  0  0
 11 23  1  0  0  0  0
 12 24  1  0  0  0  0
 12 25  1  0  0  0  0
 15 26  1  0  0  0  0
 16 27  1  0  0  0  0
M  END
> <FRED Chemgauss4 score>
-6.757675

$$$$
MOL0160_4
  -OEChem-06022418023D

 26 28  0     0  0  0  0  0  0999 V2000
   -4.0192   15.5280   -0.0634 C   0  0  0  0  0  0  0  0  0  0  0  0
   -2.7500   15.3740   -0.6211 C   0  0  0  0  0  0  0  0  0  0  0  0
   -5.0998   14.8135   -0.5807 C   0  0  0  0  0  0  0  0  0  0  0  0
   -3.6420   13.7910   -2.2136 C   0  0  0  0  0  0  0  0  0  0  0  0
    0.0245   13.9016   -4.1157 C   0  0  0  0  0  0  0  0  0  0  0  0
   -2.5614   14.5055   -1.6962 C   0  0  0  0  0  0  0  0  0  0  0  0
    1.1536   14.0440   -3.3533 C   0  0  0  0  0  0  0  0  0  0  0  0
   -4.9111   13.9451   -1.6558 C   0  0  0  0  0  0  0  0  0  0  0  0
    0.9964   14.3563   -2.0126 C   0  0  0  0  0  0  0  0  0  0  0  0
   -1.2505   14.3470   -2.2717 C   0  0  0  0  0  0  0  0  0  0  0  0
    2.5934   13.9659   -3.7135 C   0  0  0  0  0  0  0  0  0  0  0  0
    3.2589   14.0171   -2.3211 C   0  0  0  0  0  0  0  0  0  0  0  0
   -1.2096   14.0457   -3.5915 N   0  0  0  0  0  0  0  0  0  0  0  0
   -0.2046   14.5174   -1.4338 N   0  0  0  0  0  0  0  0  0  0  0  0
    2.2459   14.4785   -1.3869 N   0  0  0  0  0  0  0  0  0  0  0  0
   -6.2451   13.0640   -2.2933 Cl  0  0  0  0  0  0  0  0  0  0  0  0
   -4.1661   16.2042    0.7737 H   0  0  0  0  0  0  0  0  0  0  0  0
   -1.9178   15.9379   -0.2065 H   0  0  0  0  0  0  0  0  0  0  0  0
   -6.0830   14.9437   -0.1359 H   0  0  0  0  0  0  0  0  0  0  0  0
   -3.4959   13.1132   -3.0524 H   0  0  0  0  0  0  0  0  0  0  0  0
    0.0667   13.6702   -5.1730 H   0  0  0  0  0  0  0  0  0  0  0  0
    2.8367   13.0371   -4.2371 H   0  0  0  0  0  0  0  0  0  0  0  0
    2.8823   14.8306   -4.3193 H   0  0  0  0  0  0  0  0  0  0  0  0
    3.5940   13.0151   -2.0272 H   0  0  0  0  0  0  0  0  0  0  0  0
    4.1324   14.6771   -2.3209 H   0  0  0  0  0  0  0  0  0  0  0  0
    2.3752   14.6371   -0.3999 H   0  0  0  0  0  0  0  0  0  0  0  0
  1  2  1  0  0  0  0
  1  3  2  0  0  0  0
  2  6  2  0  0  0  0
  3  8  1  0  0  0  0
  4  6  1  0  0  0  0
  4  8  2  0  0  0  0
  5  7  1  0  0  0  0
  5 13  2  0  0  0  0
  6 10  1  0  0  0  0
  7  9  2  0  0  0  0
  7 11  1  0  0  0  0
  8 16  1  0  0  0  0
  9 14  1  0  0  0  0
  9 15  1  0  0  0  0
 10 13  1  0  0  0  0
 10 14  2  0  0  0  0
 11 12  1  0  0  0  0
 12 15  1  0  0  0  0
  1 17  1  0  0  0  0
  2 18  1  0  0  0  0
  3 19  1  0  0  0  0
  4 20  1  0  0  0  0
  5 21  1  0  0  0  0
 11 22  1  0  0  0  0
 11 23  1  0  0  0  0
 12 24  1  0  0  0  0
 12 25  1  0  0  0  0
 15 26  1  0  0  0  0
M  END
> <FRED Chemgauss4 score>
-6.742803

$$$$
MOL0018_1
  -OEChem-06022418023D

 22 23  0     1  0  0  0  0  0999 V2000
   -2.2173   15.0020    1.1671 C   0  0  0  0  0  0  0  0  0  0  0  0
    0.0516   14.7648    1.0491 C   0  0  0  0  0  0  0  0  0  0  0  0
   -2.2929   14.8276   -0.1897 C   0  0  0  0  0  0  0  0  0  0  0  0
   -1.1118   14.6312   -0.8920 C   0  0  0  0  0  0  0  0  0  0  0  0
   -3.4595   14.8429   -1.1107 C   0  0  0  0  0  0  0  0  0  0  0  0
   -2.8192   14.2822   -2.3970 C   0  0  0  0  0  0  0  0  0  0  0  0
   -0.5536   14.5074   -4.5383 C   0  0  0  0  0  0  0  0  0  0  0  0
   -0.4135   13.9283   -3.1717 C   0  0  0  0  0  0  0  0  0  0  0  0
   -1.0398   14.9713    1.8229 N   0  0  0  0  0  0  0  0  0  0  0  0
    0.0903   14.5915   -0.2902 N   0  0  0  0  0  0  0  0  0  0  0  0
   -1.3800   14.4930   -2.2667 N   0  0  2  0  0  0  0  0  0  0  0  0
   -3.0955   15.1731    1.7776 H   0  0  0  0  0  0  0  0  0  0  0  0
    1.0047   14.7377    1.5638 H   0  0  0  0  0  0  0  0  0  0  0  0
   -4.2751   14.2045   -0.7599 H   0  0  0  0  0  0  0  0  0  0  0  0
   -3.8139   15.8679   -1.2593 H   0  0  0  0  0  0  0  0  0  0  0  0
   -3.0290   13.2076   -2.4785 H   0  0  0  0  0  0  0  0  0  0  0  0
   -3.2217   14.7725   -3.2898 H   0  0  0  0  0  0  0  0  0  0  0  0
   -0.4033   15.5961   -4.4929 H   0  0  0  0  0  0  0  0  0  0  0  0
    0.1992   14.0609   -5.2046 H   0  0  0  0  0  0  0  0  0  0  0  0
   -1.5603   14.2922   -4.9261 H   0  0  0  0  0  0  0  0  0  0  0  0
   -0.5651   12.8401   -3.2256 H   0  0  0  0  0  0  0  0  0  0  0  0
    0.5979   14.1393   -2.7943 H   0  0  0  0  0  0  0  0  0  0  0  0
  1  3  1  0  0  0  0
  1  9  2  0  0  0  0
  2  9  1  0  0  0  0
  2 10  2  0  0  0  0
  3  4  2  0  0  0  0
  3  5  1  0  0  0  0
  4 10  1  0  0  0  0
  4 11  1  0  0  0  0
  5  6  1  0  0  0  0
  6 11  1  0  0  0  0
  7  8  1  0  0  0  0
  8 11  1  0  0  0  0
  1 12  1  0  0  0  0
  2 13  1  0  0  0  0
  5 14  1  0  0  0  0
  5 15  1  0  0  0  0
  6 16  1  0  0  0  0
  6 17  1  0  0  0  0
  7 18  1  0  0  0  0
  7 19  1  0  0  0  0
  7 20  1  0  0  0  0
  8 21  1  0  0  0  0
  8 22  1  0  0  0  0
M  END
> <FRED Chemgauss4 score>
-6.737111

$$$$
MOL0049_1
  -OEChem-06022418023D

 28 30  0     0  0  0  0  0  0999 V2000
   -3.3721   14.3394   -1.2537 C   0  0  0  0  0  0  0  0  0  0  0  0
   -2.2850   14.3429   -1.7651 C   0  0  0  0  0  0  0  0  0  0  0  0
   -7.1905   14.3270    0.5433 C   0  0  0  0  0  0  0  0  0  0  0  0
   -6.0451   14.3305    1.3393 C   0  0  0  0  0  0  0  0  0  0  0  0
   -7.0739   14.3275   -0.8467 C   0  0  0  0  0  0  0  0  0  0  0  0
   -4.7830   14.3348    0.7453 C   0  0  0  0  0  0  0  0  0  0  0  0
   -5.8118   14.3318   -1.4407 C   0  0  0  0  0  0  0  0  0  0  0  0
    0.2848   14.7729   -4.2141 C   0  0  0  0  0  0  0  0  0  0  0  0
   -4.6664   14.3354   -0.6447 C   0  0  0  0  0  0  0  0  0  0  0  0
   -0.9977   14.3472   -2.3706 C   0  0  0  0  0  0  0  0  0  0  0  0
    1.3927   14.3592   -3.5228 C   0  0  0  0  0  0  0  0  0  0  0  0
    1.2225   13.9459   -2.2113 C   0  0  0  0  0  0  0  0  0  0  0  0
    2.8255   14.3044   -3.9135 C   0  0  0  0  0  0  0  0  0  0  0  0
    3.4383   13.5428   -2.7182 C   0  0  0  0  0  0  0  0  0  0  0  0
   -0.9424   14.7732   -3.6551 N   0  0  0  0  0  0  0  0  0  0  0  0
    0.0280   13.9280   -1.5978 N   0  0  0  0  0  0  0  0  0  0  0  0
    2.4526   13.5714   -1.6507 N   0  0  0  0  0  0  0  0  0  0  0  0
   -8.1731   14.3219    1.0060 H   0  0  0  0  0  0  0  0  0  0  0  0
   -6.1357   14.3289    2.4215 H   0  0  0  0  0  0  0  0  0  0  0  0
   -7.9653   14.3238   -1.4671 H   0  0  0  0  0  0  0  0  0  0  0  0
   -3.8997   14.3374    1.3794 H   0  0  0  0  0  0  0  0  0  0  0  0
   -5.7369   14.3317   -2.5254 H   0  0  0  0  0  0  0  0  0  0  0  0
    0.3396   15.1221   -5.2380 H   0  0  0  0  0  0  0  0  0  0  0  0
    2.9760   13.7610   -4.8507 H   0  0  0  0  0  0  0  0  0  0  0  0
    3.2393   15.3149   -3.9889 H   0  0  0  0  0  0  0  0  0  0  0  0
    3.6394   12.5020   -2.9985 H   0  0  0  0  0  0  0  0  0  0  0  0
    4.3839   13.9939   -2.4004 H   0  0  0  0  0  0  0  0  0  0  0  0
    2.5618   13.1769   -0.7295 H   0  0  0  0  0  0  0  0  0  0  0  0
  1  2  3  0  0  0  0
  1  9  1  0  0  0  0
  2 10  1  0  0  0  0
  3  4  1  0  0  0  0
  3  5  2  0  0  0  0
  4  6  2  0  0  0  0
  5  7  1  0  0  0  0
  6  9  1  0  0  0  0
  7  9  2  0  0  0  0
  8 11  1  0  0  0  0
  8 15  2  0  0  0  0
 10 15  1  0  0  0  0
 10 16  2  0  0  0  0
 11 12  2  0  0  0  0
 11 13  1  0  0  0  0
 12 16  1  0  0  0  0
 12 17  1  0  0  0  0
 13 14  1  0  0  0  0
 14 17  1  0  0  0  0
  3 18  1  0  0  0  0
  4 19  1  0  0  0  0
  5 20  1  0  0  0  0
  6 21  1  0  0  0  0
  7 22  1  0  0  0  0
  8 23  1  0  0  0  0
 13 24  1  0  0  0  0
 13 25  1  0  0  0  0
 14 26  1  0  0  0  0
 14 27  1  0  0  0  0
 17 28  1  0  0  0  0
M  END
> <FRED Chemgauss4 score>
-6.735821

$$$$
MOL0182_1
  -OEChem-06022418023D

 29 31  0     0  0  0  0  0  0999 V2000
    0.7974   13.5317   -4.6800 C   0  0  0  0  0  0  0  0  0  0  0  0
    0.8633   14.8353   -4.1883 C   0  0  0  0  0  0  0  0  0  0  0  0
    0.2961   12.5076   -3.8765 C   0  0  0  0  0  0  0  0  0  0  0  0
    0.4279   15.1149   -2.8929 C   0  0  0  0  0  0  0  0  0  0  0  0
   -0.1393   12.7872   -2.5811 C   0  0  0  0  0  0  0  0  0  0  0  0
    0.0533   14.5220    1.4461 C   0  0  0  0  0  0  0  0  0  0  0  0
   -0.0734   14.0908   -2.0893 C   0  0  0  0  0  0  0  0  0  0  0  0
   -1.8307   14.7381   -0.4573 C   0  0  0  0  0  0  0  0  0  0  0  0
   -0.5251   14.3812   -0.7461 C   0  0  0  0  0  0  0  0  0  0  0  0
   -2.1065   14.9989    0.8808 C   0  0  0  0  0  0  0  0  0  0  0  0
   -2.8729   14.9069   -1.5204 C   0  0  0  0  0  0  0  0  0  0  0  0
   -3.5074   15.3604    1.3038 C   0  0  0  0  0  0  0  0  0  0  0  0
   -4.2887   14.9673   -0.9396 C   0  0  0  0  0  0  0  0  0  0  0  0
    0.4428   14.2603    0.1850 N   0  0  0  0  0  0  0  0  0  0  0  0
   -1.1768   14.8857    1.8564 N   0  0  0  0  0  0  0  0  0  0  0  0
   -4.3340   15.8772    0.2067 N   0  0  0  0  0  0  0  0  0  0  0  0
    1.1349   13.3146   -5.6892 H   0  0  0  0  0  0  0  0  0  0  0  0
    1.2520   15.6331   -4.8144 H   0  0  0  0  0  0  0  0  0  0  0  0
    0.2432   11.4926   -4.2592 H   0  0  0  0  0  0  0  0  0  0  0  0
    0.4855   16.1363   -2.5241 H   0  0  0  0  0  0  0  0  0  0  0  0
   -0.5282   11.9788   -1.9666 H   0  0  0  0  0  0  0  0  0  0  0  0
    0.8111   14.4309    2.2147 H   0  0  0  0  0  0  0  0  0  0  0  0
   -2.6983   15.8270   -2.0903 H   0  0  0  0  0  0  0  0  0  0  0  0
   -2.8009   14.0595   -2.2141 H   0  0  0  0  0  0  0  0  0  0  0  0
   -3.9994   14.4760    1.7237 H   0  0  0  0  0  0  0  0  0  0  0  0
   -3.4513   16.1083    2.1038 H   0  0  0  0  0  0  0  0  0  0  0  0
   -5.0077   15.2920   -1.7026 H   0  0  0  0  0  0  0  0  0  0  0  0
   -4.5983   13.9655   -0.6228 H   0  0  0  0  0  0  0  0  0  0  0  0
   -5.2985   15.9677    0.5266 H   0  0  0  0  0  0  0  0  0  0  0  0
  1  2  1  0  0  0  0
  1  3  2  0  0  0  0
  2  4  2  0  0  0  0
  3  5  1  0  0  0  0
  4  7  1  0  0  0  0
  5  7  2  0  0  0  0
  6 14  2  0  0  0  0
  6 15  1  0  0  0  0
  7  9  1  0  0  0  0
  8  9  2  0  0  0  0
  8 10  1  0  0  0  0
  8 11  1  0  0  0  0
  9 14  1  0  0  0  0
 10 12  1  0  0  0  0
 10 15  2  0  0  0  0
 11 13  1  0  0  0  0
 12 16  1  0  0  0  0
 13 16  1  0  0  0  0
  1 17  1  0  0  0  0
  2 18  1  0  0  0  0
  3 19  1  0  0  0  0
  4 20  1  0  0  0  0
  5 21  1  0  0  0  0
  6 22  1  0  0  0  0
 11 23  1  0  0  0  0
 11 24  1  0  0  0  0
 12 25  1  0  0  0  0
 12 26  1  0  0  0  0
 13 27  1  0  0  0  0
 13 28  1  0  0  0  0
 16 29  1  0  0  0  0
M  END
> <FRED Chemgauss4 score>
-6.729768

$$$$
MOL0060_1
  -OEChem-06022418023D

 19 20  0     1  0  0  0  0  0999 V2000
    0.4030   13.7316   -2.5932 C   0  0  0  0  0  0  0  0  0  0  0  0
    2.2225   14.0276   -1.2436 C   0  0  0  0  0  0  0  0  0  0  0  0
    0.8457   14.7520   -3.3938 C   0  0  0  0  0  0  0  0  0  0  0  0
    2.0272   15.3825   -3.0457 C   0  0  0  0  0  0  0  0  0  0  0  0
    0.2755   15.3258   -4.6429 C   0  0  0  0  0  0  0  0  0  0  0  0
    1.2626   16.4864   -4.9432 C   0  0  1  0  0  0  0  0  0  0  0  0
    0.5915   17.8513   -4.8366 C   0  0  0  0  0  0  0  0  0  0  0  0
    1.0810   13.3440   -1.4939 N   0  0  0  0  0  0  0  0  0  0  0  0
    2.7485   15.0412   -1.9650 N   0  0  0  0  0  0  0  0  0  0  0  0
    2.3375   16.3927   -3.9626 N   0  0  0  0  0  0  0  0  0  0  0  0
   -0.5093   13.1869   -2.8038 H   0  0  0  0  0  0  0  0  0  0  0  0
    2.7777   13.7260   -0.3633 H   0  0  0  0  0  0  0  0  0  0  0  0
    0.3020   14.5798   -5.4440 H   0  0  0  0  0  0  0  0  0  0  0  0
   -0.7504   15.6733   -4.4878 H   0  0  0  0  0  0  0  0  0  0  0  0
    1.6733   16.3705   -5.9531 H   0  0  0  0  0  0  0  0  0  0  0  0
    0.1766   17.9846   -3.8378 H   0  0  0  0  0  0  0  0  0  0  0  0
   -0.2128   17.9281   -5.5677 H   0  0  0  0  0  0  0  0  0  0  0  0
    1.3197   18.6394   -5.0263 H   0  0  0  0  0  0  0  0  0  0  0  0
    3.1401   16.9994   -3.9006 H   0  0  0  0  0  0  0  0  0  0  0  0
  1  3  1  0  0  0  0
  1  8  2  0  0  0  0
  2  8  1  0  0  0  0
  2  9  2  0  0  0  0
  3  4  2  0  0  0  0
  3  5  1  0  0  0  0
  4  9  1  0  0  0  0
  4 10  1  0  0  0  0
  5  6  1  0  0  0  0
  6  7  1  0  0  0  0
  6 10  1  0  0  0  0
  1 11  1  0  0  0  0
  2 12  1  0  0  0  0
  5 13  1  0  0  0  0
  5 14  1  0  0  0  0
  6 15  1  0  0  0  0
  7 16  1  0  0  0  0
  7 17  1  0  0  0  0
  7 18  1  0  0  0  0
 10 19  1  0  0  0  0
M  END
> <FRED Chemgauss4 score>
-6.726396

$$$$
MOL0129_1
  -OEChem-06022418023D

 17 18  0     0  0  0  0  0  0999 V2000
   -0.0084   13.9154   -1.7143 C   0  0  0  0  0  0  0  0  0  0  0  0
    2.1965   14.2394   -1.3010 C   0  0  0  0  0  0  0  0  0  0  0  0
    0.0330   14.8559   -2.7260 C   0  0  0  0  0  0  0  0  0  0  0  0
    1.2451   15.4749   -2.9866 C   0  0  0  0  0  0  0  0  0  0  0  0
   -1.0944   16.1176   -4.4784 C   0  0  0  0  0  0  0  0  0  0  0  0
    0.1322   17.0027   -4.5593 C   0  0  0  0  0  0  0  0  0  0  0  0
    1.0664   13.5874   -0.9737 N   0  0  0  0  0  0  0  0  0  0  0  0
    2.3509   15.1635   -2.2720 N   0  0  0  0  0  0  0  0  0  0  0  0
   -1.0942   15.1474   -3.4991 N   0  0  0  0  0  0  0  0  0  0  0  0
    1.3280   16.3895   -4.0242 N   0  0  0  0  0  0  0  0  0  0  0  0
   -2.0668   16.3229   -5.2071 O   0  0  0  0  0  0  0  0  0  0  0  0
   -0.9207   13.3846   -1.4631 H   0  0  0  0  0  0  0  0  0  0  0  0
    3.0802   13.9951   -0.7243 H   0  0  0  0  0  0  0  0  0  0  0  0
    0.3045   17.2651   -5.6081 H   0  0  0  0  0  0  0  0  0  0  0  0
   -0.0846   17.9230   -4.0056 H   0  0  0  0  0  0  0  0  0  0  0  0
   -1.9371   14.6013   -3.3473 H   0  0  0  0  0  0  0  0  0  0  0  0
    2.2259   16.8255   -4.1968 H   0  0  0  0  0  0  0  0  0  0  0  0
  1  3  1  0  0  0  0
  1  7  2  0  0  0  0
  2  7  1  0  0  0  0
  2  8  2  0  0  0  0
  3  4  2  0  0  0  0
  3  9  1  0  0  0  0
  4  8  1  0  0  0  0
  4 10  1  0  0  0  0
  5  6  1  0  0  0  0
  5  9  1  0  0  0  0
  5 11  2  0  0  0  0
  6 10  1  0  0  0  0
  1 12  1  0  0  0  0
  2 13  1  0  0  0  0
  6 14  1  0  0  0  0
  6 15  1  0  0  0  0
  9 16  1  0  0  0  0
 10 17  1  0  0  0  0
M  END
> <FRED Chemgauss4 score>
-6.702613

$$$$
MOL0207_3
  -OEChem-06022418023D

 25 27  0     1  0  0  0  0  0999 V2000
   -2.2168   15.2421    1.0376 C   0  0  0  0  0  0  0  0  0  0  0  0
    0.0069   14.8329    1.0160 C   0  0  0  0  0  0  0  0  0  0  0  0
   -2.2983   15.1029   -0.3407 C   0  0  0  0  0  0  0  0  0  0  0  0
   -1.1073   14.7784   -1.0019 C   0  0  0  0  0  0  0  0  0  0  0  0
   -0.0104   13.2195   -4.3079 C   0  0  0  0  0  0  0  0  0  0  0  0
    0.3856   14.6527   -4.5067 C   0  0  0  0  0  0  0  0  0  0  0  0
   -3.4880   15.2932   -2.4536 C   0  0  0  0  0  0  0  0  0  0  0  0
   -2.4382   14.3435   -3.0174 C   0  0  0  0  0  0  0  0  0  0  0  0
    0.0716   14.1459   -3.1269 C   0  0  0  0  0  0  0  0  0  0  0  0
   -1.0800   15.1167    1.7480 N   0  0  0  0  0  0  0  0  0  0  0  0
    0.0597   14.6577   -0.3179 N   0  0  0  0  0  0  0  0  0  0  0  0
   -3.5012   15.2356   -1.0082 N   0  0  0  0  0  0  0  0  0  0  0  0
   -1.1341   14.5859   -2.4037 N   0  0  2  0  0  0  0  0  0  0  0  0
   -3.0968   15.4732    1.6310 H   0  0  0  0  0  0  0  0  0  0  0  0
    0.9417   14.7317    1.5532 H   0  0  0  0  0  0  0  0  0  0  0  0
   -0.9888   12.9146   -4.6584 H   0  0  0  0  0  0  0  0  0  0  0  0
    0.7588   12.4640   -4.4111 H   0  0  0  0  0  0  0  0  0  0  0  0
    1.4214   14.8623   -4.7432 H   0  0  0  0  0  0  0  0  0  0  0  0
   -0.3283   15.3091   -4.9891 H   0  0  0  0  0  0  0  0  0  0  0  0
   -3.2786   16.3206   -2.7759 H   0  0  0  0  0  0  0  0  0  0  0  0
   -4.4787   15.0284   -2.8383 H   0  0  0  0  0  0  0  0  0  0  0  0
   -2.7363   13.3013   -2.8446 H   0  0  0  0  0  0  0  0  0  0  0  0
   -2.3786   14.4850   -4.1030 H   0  0  0  0  0  0  0  0  0  0  0  0
    0.9114   14.0071   -2.4549 H   0  0  0  0  0  0  0  0  0  0  0  0
   -4.3230   15.5442   -0.5031 H   0  0  0  0  0  0  0  0  0  0  0  0
  1  3  1  0  0  0  0
  1 10  2  0  0  0  0
  2 10  1  0  0  0  0
  2 11  2  0  0  0  0
  3  4  2  0  0  0  0
  3 12  1  0  0  0  0
  4 11  1  0  0  0  0
  4 13  1  0  0  0  0
  5  6  1  0  0  0  0
  5  9  1  0  0  0  0
  6  9  1  0  0  0  0
  7  8  1  0  0  0  0
  7 12  1  0  0  0  0
  8 13  1  0  0  0  0
  9 13  1  0  0  0  0
  1 14  1  0  0  0  0
  2 15  1  0  0  0  0
  5 16  1  0  0  0  0
  5 17  1  0  0  0  0
  6 18  1  0  0  0  0
  6 19  1  0  0  0  0
  7 20  1  0  0  0  0
  7 21  1  0  0  0  0
  8 22  1  0  0  0  0
  8 23  1  0  0  0  0
  9 24  1  0  0  0  0
 12 25  1  0  0  0  0
M  END
> <FRED Chemgauss4 score>
-6.700397

$$$$
MOL0225_1
  -OEChem-06022418023D

 23 24  0     1  0  0  0  0  0999 V2000
   -2.1794   15.1618    1.2373 C   0  0  0  0  0  0  0  0  0  0  0  0
   -0.0118   14.6283    0.8508 C   0  0  0  0  0  0  0  0  0  0  0  0
   -2.4805   15.0835   -0.1148 C   0  0  0  0  0  0  0  0  0  0  0  0
   -1.4137   14.7813   -0.9586 C   0  0  0  0  0  0  0  0  0  0  0  0
   -3.8651   15.3695   -0.6123 C   0  0  0  0  0  0  0  0  0  0  0  0
   -4.0947   14.8617   -2.0331 C   0  0  0  0  0  0  0  0  0  0  0  0
   -2.9350   15.2704   -2.9336 C   0  0  0  0  0  0  0  0  0  0  0  0
   -1.6208   14.6296   -2.4546 C   0  0  1  0  0  0  0  0  0  0  0  0
   -0.4521   15.1997   -3.2642 C   0  0  0  0  0  0  0  0  0  0  0  0
   -0.9553   14.9384    1.7544 N   0  0  0  0  0  0  0  0  0  0  0  0
   -0.1699   14.5298   -0.4825 N   0  0  0  0  0  0  0  0  0  0  0  0
   -2.9415   15.4135    1.9686 H   0  0  0  0  0  0  0  0  0  0  0  0
    0.9825   14.4359    1.2346 H   0  0  0  0  0  0  0  0  0  0  0  0
   -4.6062   14.9092    0.0519 H   0  0  0  0  0  0  0  0  0  0  0  0
   -4.0228   16.4549   -0.5844 H   0  0  0  0  0  0  0  0  0  0  0  0
   -4.1902   13.7683   -2.0297 H   0  0  0  0  0  0  0  0  0  0  0  0
   -5.0365   15.2652   -2.4218 H   0  0  0  0  0  0  0  0  0  0  0  0
   -3.1423   14.9618   -3.9653 H   0  0  0  0  0  0  0  0  0  0  0  0
   -2.8488   16.3651   -2.9393 H   0  0  0  0  0  0  0  0  0  0  0  0
   -1.6786   13.5505   -2.6525 H   0  0  0  0  0  0  0  0  0  0  0  0
   -0.3725   16.2693   -3.0859 H   0  0  0  0  0  0  0  0  0  0  0  0
   -0.6218   15.0228   -4.3234 H   0  0  0  0  0  0  0  0  0  0  0  0
    0.4724   14.7142   -2.9613 H   0  0  0  0  0  0  0  0  0  0  0  0
  1  3  1  0  0  0  0
  1 10  2  0  0  0  0
  2 10  1  0  0  0  0
  2 11  2  0  0  0  0
  3  4  2  0  0  0  0
  3  5  1  0  0  0  0
  4  8  1  0  0  0  0
  4 11  1  0  0  0  0
  5  6  1  0  0  0  0
  6  7  1  0  0  0  0
  7  8  1  0  0  0  0
  8  9  1  0  0  0  0
  1 12  1  0  0  0  0
  2 13  1  0  0  0  0
  5 14  1  0  0  0  0
  5 15  1  0  0  0  0
  6 16  1  0  0  0  0
  6 17  1  0  0  0  0
  7 18  1  0  0  0  0
  7 19  1  0  0  0  0
  8 20  1  0  0  0  0
  9 21  1  0  0  0  0
  9 22  1  0  0  0  0
  9 23  1  0  0  0  0
M  END
> <FRED Chemgauss4 score>
-6.696220

$$$$
MOL0014_1
  -OEChem-06022418023D

 19 20  0     1  0  0  0  0  0999 V2000
    1.5509   15.6321   -2.8343 C   0  0  0  0  0  0  0  0  0  0  0  0
    2.3289   14.0918   -1.3372 C   0  0  0  0  0  0  0  0  0  0  0  0
    0.3285   15.0126   -2.8184 C   0  0  0  0  0  0  0  0  0  0  0  0
    0.1775   13.8982   -2.0121 C   0  0  0  0  0  0  0  0  0  0  0  0
   -0.9262   15.3180   -3.5578 C   0  0  0  0  0  0  0  0  0  0  0  0
   -1.9011   14.2494   -2.9922 C   0  0  2  0  0  0  0  0  0  0  0  0
   -3.0474   14.8774   -2.2078 C   0  0  0  0  0  0  0  0  0  0  0  0
    2.5841   15.1873   -2.0906 N   0  0  0  0  0  0  0  0  0  0  0  0
    1.1685   13.4058   -1.2505 N   0  0  0  0  0  0  0  0  0  0  0  0
   -1.1212   13.3875   -2.1123 N   0  0  0  0  0  0  0  0  0  0  0  0
    1.7473   16.5059   -3.4436 H   0  0  0  0  0  0  0  0  0  0  0  0
    3.1507   13.7232   -0.7348 H   0  0  0  0  0  0  0  0  0  0  0  0
   -1.2622   16.3410   -3.3631 H   0  0  0  0  0  0  0  0  0  0  0  0
   -0.7735   15.1714   -4.6320 H   0  0  0  0  0  0  0  0  0  0  0  0
   -2.3164   13.6561   -3.8154 H   0  0  0  0  0  0  0  0  0  0  0  0
   -2.6529   15.4719   -1.3842 H   0  0  0  0  0  0  0  0  0  0  0  0
   -3.6932   14.0977   -1.8045 H   0  0  0  0  0  0  0  0  0  0  0  0
   -3.6355   15.5222   -2.8606 H   0  0  0  0  0  0  0  0  0  0  0  0
   -1.4671   12.5906   -1.6010 H   0  0  0  0  0  0  0  0  0  0  0  0
  1  3  1  0  0  0  0
  1  8  2  0  0  0  0
  2  8  1  0  0  0  0
  2  9  2  0  0  0  0
  3  4  2  0  0  0  0
  3  5  1  0  0  0  0
  4  9  1  0  0  0  0
  4 10  1  0  0  0  0
  5  6  1  0  0  0  0
  6  7  1  0  0  0  0
  6 10  1  0  0  0  0
  1 11  1  0  0  0  0
  2 12  1  0  0  0  0
  5 13  1  0  0  0  0
  5 14  1  0  0  0  0
  6 15  1  0  0  0  0
  7 16  1  0  0  0  0
  7 17  1  0  0  0  0
  7 18  1  0  0  0  0
 10 19  1  0  0  0  0
M  END
> <FRED Chemgauss4 score>
-6.668222

$$$$
MOL0151_1
  -OEChem-06022418023D

 25 26  0     0  0  0  0  0  0999 V2000
    1.7785   15.7377   -3.3070 C   0  0  0  0  0  0  0  0  0  0  0  0
    2.3250   14.2787   -1.6602 C   0  0  0  0  0  0  0  0  0  0  0  0
    0.5346   15.1476   -3.4641 C   0  0  0  0  0  0  0  0  0  0  0  0
    0.2671   14.0532   -2.6457 C   0  0  0  0  0  0  0  0  0  0  0  0
   -0.4409   15.6247   -4.4936 C   0  0  0  0  0  0  0  0  0  0  0  0
   -1.8571   15.1429   -4.1902 C   0  0  0  0  0  0  0  0  0  0  0  0
   -1.0768   13.3332   -2.7307 C   0  0  0  0  0  0  0  0  0  0  0  0
   -0.8468   11.8099   -2.8194 C   0  0  0  0  0  0  0  0  0  0  0  0
   -1.9002   13.6305   -1.4631 C   0  0  0  0  0  0  0  0  0  0  0  0
    2.6977   15.3291   -2.4107 N   0  0  0  0  0  0  0  0  0  0  0  0
    1.1563   13.6129   -1.7221 N   0  0  0  0  0  0  0  0  0  0  0  0
   -1.8683   13.7033   -3.9278 N   0  0  0  0  0  0  0  0  0  0  0  0
    2.0808   16.5828   -3.9177 H   0  0  0  0  0  0  0  0  0  0  0  0
    3.0407   13.9294   -0.9261 H   0  0  0  0  0  0  0  0  0  0  0  0
   -0.4161   16.7207   -4.5143 H   0  0  0  0  0  0  0  0  0  0  0  0
   -0.1481   15.2637   -5.4856 H   0  0  0  0  0  0  0  0  0  0  0  0
   -2.2409   15.6710   -3.3083 H   0  0  0  0  0  0  0  0  0  0  0  0
   -2.5396   15.3920   -5.0130 H   0  0  0  0  0  0  0  0  0  0  0  0
   -1.8062   11.3079   -2.8793 H   0  0  0  0  0  0  0  0  0  0  0  0
   -0.3139   11.4782   -1.9351 H   0  0  0  0  0  0  0  0  0  0  0  0
   -0.2613   11.5892   -3.7051 H   0  0  0  0  0  0  0  0  0  0  0  0
   -2.8517   13.1165   -1.5309 H   0  0  0  0  0  0  0  0  0  0  0  0
   -2.0630   14.6993   -1.3900 H   0  0  0  0  0  0  0  0  0  0  0  0
   -1.3528   13.2805   -0.5959 H   0  0  0  0  0  0  0  0  0  0  0  0
   -2.8334   13.4057   -3.8000 H   0  0  0  0  0  0  0  0  0  0  0  0
  1  3  1  0  0  0  0
  1 10  2  0  0  0  0
  2 10  1  0  0  0  0
  2 11  2  0  0  0  0
  3  4  2  0  0  0  0
  3  5  1  0  0  0  0
  4  7  1  0  0  0  0
  4 11  1  0  0  0  0
  5  6  1  0  0  0  0
  6 12  1  0  0  0  0
  7  8  1  0  0  0  0
  7  9  1  0  0  0  0
  7 12  1  0  0  0  0
  1 13  1  0  0  0  0
  2 14  1  0  0  0  0
  5 15  1  0  0  0  0
  5 16  1  0  0  0  0
  6 17  1  0  0  0  0
  6 18  1  0  0  0  0
  8 19  1  0  0  0  0
  8 20  1  0  0  0  0
  8 21  1  0  0  0  0
  9 22  1  0  0  0  0
  9 23  1  0  0  0  0
  9 24  1  0  0  0  0
 12 25  1  0  0  0  0
M  END
> <FRED Chemgauss4 score>
-6.625393

$$$$
MOL0232_1
  -OEChem-06022418023D

 30 32  0     0  0  0  0  0  0999 V2000
   -2.6582   15.3233   -2.4606 C   0  0  0  0  0  0  0  0  0  0  0  0
   -1.8410   15.4540   -3.3312 C   0  0  0  0  0  0  0  0  0  0  0  0
    1.9069   13.0160   -4.0583 C   0  0  0  0  0  0  0  0  0  0  0  0
    0.6963   13.6125   -4.3926 C   0  0  0  0  0  0  0  0  0  0  0  0
    2.8429   13.7824   -3.3828 C   0  0  0  0  0  0  0  0  0  0  0  0
   -4.5188   15.9337    0.5314 C   0  0  0  0  0  0  0  0  0  0  0  0
    1.4623   15.6188   -3.3708 C   0  0  0  0  0  0  0  0  0  0  0  0
   -3.6217   15.1662   -1.4258 C   0  0  0  0  0  0  0  0  0  0  0  0
   -5.4068   14.8907    0.5182 C   0  0  0  0  0  0  0  0  0  0  0  0
    0.4618   14.9384   -4.0460 C   0  0  0  0  0  0  0  0  0  0  0  0
   -5.3445   13.9986   -0.5401 C   0  0  0  0  0  0  0  0  0  0  0  0
   -6.5113   14.5345    1.4467 C   0  0  0  0  0  0  0  0  0  0  0  0
   -6.9194   13.1435    0.9151 C   0  0  0  0  0  0  0  0  0  0  0  0
   -0.8399   15.6130   -4.3933 C   0  0  0  0  0  0  0  0  0  0  0  0
    2.6511   15.0731   -3.0291 N   0  0  0  0  0  0  0  0  0  0  0  0
   -3.5985   16.0956   -0.4409 N   0  0  0  0  0  0  0  0  0  0  0  0
   -4.4548   14.1090   -1.5401 N   0  0  0  0  0  0  0  0  0  0  0  0
   -6.3270   13.0066   -0.4048 N   0  0  0  0  0  0  0  0  0  0  0  0
    2.1115   11.9836   -4.3182 H   0  0  0  0  0  0  0  0  0  0  0  0
   -0.0580   13.0370   -4.9225 H   0  0  0  0  0  0  0  0  0  0  0  0
    3.8029   13.3634   -3.0997 H   0  0  0  0  0  0  0  0  0  0  0  0
   -4.5141   16.6786    1.3177 H   0  0  0  0  0  0  0  0  0  0  0  0
    1.3365   16.6555   -3.0742 H   0  0  0  0  0  0  0  0  0  0  0  0
   -6.1741   14.4801    2.4856 H   0  0  0  0  0  0  0  0  0  0  0  0
   -7.3353   15.2486    1.3509 H   0  0  0  0  0  0  0  0  0  0  0  0
   -6.5256   12.3592    1.5726 H   0  0  0  0  0  0  0  0  0  0  0  0
   -8.0081   13.0347    0.8771 H   0  0  0  0  0  0  0  0  0  0  0  0
   -1.2240   15.2041   -5.3360 H   0  0  0  0  0  0  0  0  0  0  0  0
   -0.6608   16.6784   -4.5836 H   0  0  0  0  0  0  0  0  0  0  0  0
   -6.4268   12.2163   -1.0226 H   0  0  0  0  0  0  0  0  0  0  0  0
  1  2  3  0  0  0  0
  1  8  1  0  0  0  0
  2 14  1  0  0  0  0
  3  4  2  0  0  0  0
  3  5  1  0  0  0  0
  4 10  1  0  0  0  0
  5 15  2  0  0  0  0
  6  9  1  0  0  0  0
  6 16  2  0  0  0  0
  7 10  2  0  0  0  0
  7 15  1  0  0  0  0
  8 16  1  0  0  0  0
  8 17  2  0  0  0  0
  9 11  2  0  0  0  0
  9 12  1  0  0  0  0
 10 14  1  0  0  0  0
 11 17  1  0  0  0  0
 11 18  1  0  0  0  0
 12 13  1  0  0  0  0
 13 18  1  0  0  0  0
  3 19  1  0  0  0  0
  4 20  1  0  0  0  0
  5 21  1  0  0  0  0
  6 22  1  0  0  0  0
  7 23  1  0  0  0  0
 12 24  1  0  0  0  0
 12 25  1  0  0  0  0
 13 26  1  0  0  0  0
 13 27  1  0  0  0  0
 14 28  1  0  0  0  0
 14 29  1  0  0  0  0
 18 30  1  0  0  0  0
M  END
> <FRED Chemgauss4 score>
-6.619057

$$$$
MOL0163_1
  -OEChem-06022418023D

 21 22  0     0  0  0  0  0  0999 V2000
   -0.1093   14.9061    1.1817 C   0  0  0  0  0  0  0  0  0  0  0  0
   -0.3339   14.8828   -0.1772 C   0  0  0  0  0  0  0  0  0  0  0  0
   -2.3654   14.8881    1.5550 C   0  0  0  0  0  0  0  0  0  0  0  0
   -2.5901   14.8656    0.1961 C   0  0  0  0  0  0  0  0  0  0  0  0
   -4.3626   14.8164   -1.6127 C   0  0  0  0  0  0  0  0  0  0  0  0
   -5.8721   14.9015   -1.6068 C   0  0  0  0  0  0  0  0  0  0  0  0
   -6.2425   14.4597   -0.2052 C   0  0  0  0  0  0  0  0  0  0  0  0
   -5.0704   14.9276    0.6318 C   0  0  0  0  0  0  0  0  0  0  0  0
   -1.1210   14.9091    2.0722 N   0  0  0  0  0  0  0  0  0  0  0  0
   -1.5784   14.8622   -0.6944 N   0  0  0  0  0  0  0  0  0  0  0  0
   -3.9379   14.8413   -0.2699 N   0  0  0  0  0  0  0  0  0  0  0  0
   -3.7092   14.7953   -2.6457 O   0  0  0  0  0  0  0  0  0  0  0  0
    0.8909   14.9226    1.5965 H   0  0  0  0  0  0  0  0  0  0  0  0
    0.4794   14.8802   -0.8920 H   0  0  0  0  0  0  0  0  0  0  0  0
   -3.1713   14.8907    2.2802 H   0  0  0  0  0  0  0  0  0  0  0  0
   -6.1658   15.9391   -1.7943 H   0  0  0  0  0  0  0  0  0  0  0  0
   -6.3034   14.2471   -2.3682 H   0  0  0  0  0  0  0  0  0  0  0  0
   -7.1944   14.8829    0.1277 H   0  0  0  0  0  0  0  0  0  0  0  0
   -6.3211   13.3664   -0.1643 H   0  0  0  0  0  0  0  0  0  0  0  0
   -5.1873   15.9732    0.9376 H   0  0  0  0  0  0  0  0  0  0  0  0
   -4.9139   14.2990    1.5137 H   0  0  0  0  0  0  0  0  0  0  0  0
  1  2  2  0  0  0  0
  1  9  1  0  0  0  0
  2 10  1  0  0  0  0
  3  4  1  0  0  0  0
  3  9  2  0  0  0  0
  4 10  2  0  0  0  0
  4 11  1  0  0  0  0
  5  6  1  0  0  0  0
  5 11  1  0  0  0  0
  5 12  2  0  0  0  0
  6  7  1  0  0  0  0
  7  8  1  0  0  0  0
  8 11  1  0  0  0  0
  1 13  1  0  0  0  0
  2 14  1  0  0  0  0
  3 15  1  0  0  0  0
  6 16  1  0  0  0  0
  6 17  1  0  0  0  0
  7 18  1  0  0  0  0
  7 19  1  0  0  0  0
  8 20  1  0  0  0  0
  8 21  1  0  0  0  0
M  END
> <FRED Chemgauss4 score>
-6.611972

$$$$
MOL0137_4
  -OEChem-06022418023D

 28 30  0     1  0  0  0  0  0999 V2000
    1.6053   15.5289   -3.1457 C   0  0  0  0  0  0  0  0  0  0  0  0
    2.2150   14.2189   -1.4018 C   0  0  0  0  0  0  0  0  0  0  0  0
    0.4526   14.7871   -3.3501 C   0  0  0  0  0  0  0  0  0  0  0  0
    0.2692   13.6932   -2.5019 C   0  0  0  0  0  0  0  0  0  0  0  0
   -1.4388   10.2651   -6.0509 C   0  0  0  0  0  0  0  0  0  0  0  0
   -2.1395   11.6395   -6.0557 C   0  0  0  0  0  0  0  0  0  0  0  0
   -1.0032   10.5714   -4.6030 C   0  0  0  0  0  0  0  0  0  0  0  0
   -1.7452   14.4453   -4.3398 C   0  0  0  0  0  0  0  0  0  0  0  0
   -1.1302   12.0749   -4.9615 C   0  0  0  0  0  0  0  0  0  0  0  0
   -1.6561   12.9843   -3.8806 C   0  0  1  0  0  0  0  0  0  0  0  0
    2.5070   15.2748   -2.1773 N   0  0  0  0  0  0  0  0  0  0  0  0
    1.1443   13.4090   -1.5076 N   0  0  0  0  0  0  0  0  0  0  0  0
   -0.4401   15.0812   -4.3637 N   0  0  0  0  0  0  0  0  0  0  0  0
   -0.8367   12.8691   -2.6825 N   0  0  0  0  0  0  0  0  0  0  0  0
    1.8498   16.3745   -3.7818 H   0  0  0  0  0  0  0  0  0  0  0  0
    2.9136   13.9930   -0.6057 H   0  0  0  0  0  0  0  0  0  0  0  0
   -2.0907    9.3976   -6.1787 H   0  0  0  0  0  0  0  0  0  0  0  0
   -0.6037   10.1935   -6.7572 H   0  0  0  0  0  0  0  0  0  0  0  0
   -2.0875   12.1928   -6.9969 H   0  0  0  0  0  0  0  0  0  0  0  0
   -3.1834   11.5996   -5.7229 H   0  0  0  0  0  0  0  0  0  0  0  0
   -1.7169   10.2208   -3.8482 H   0  0  0  0  0  0  0  0  0  0  0  0
   -0.0009   10.2323   -4.3288 H   0  0  0  0  0  0  0  0  0  0  0  0
   -2.1943   14.5092   -5.3430 H   0  0  0  0  0  0  0  0  0  0  0  0
   -2.4088   15.0107   -3.6702 H   0  0  0  0  0  0  0  0  0  0  0  0
   -0.2006   12.4721   -5.3969 H   0  0  0  0  0  0  0  0  0  0  0  0
   -2.6844   12.6380   -3.6076 H   0  0  0  0  0  0  0  0  0  0  0  0
   -0.0989   15.4837   -5.2280 H   0  0  0  0  0  0  0  0  0  0  0  0
   -1.2038   12.3852   -1.8615 H   0  0  0  0  0  0  0  0  0  0  0  0
  1  3  1  0  0  0  0
  1 11  2  0  0  0  0
  2 11  1  0  0  0  0
  2 12  2  0  0  0  0
  3  4  2  0  0  0  0
  3 13  1  0  0  0  0
  4 12  1  0  0  0  0
  4 14  1  0  0  0  0
  5  6  1  0  0  0  0
  5  7  1  0  0  0  0
  6  9  1  0  0  0  0
  7  9  1  0  0  0  0
  8 10  1  0  0  0  0
  8 13  1  0  0  0  0
  9 10  1  0  0  0  0
 10 14  1  0  0  0  0
  1 15  1  0  0  0  0
  2 16  1  0  0  0  0
  5 17  1  0  0  0  0
  5 18  1  0  0  0  0
  6 19  1  0  0  0  0
  6 20  1  0  0  0  0
  7 21  1  0  0  0  0
  7 22  1  0  0  0  0
  8 23  1  0  0  0  0
  8 24  1  0  0  0  0
  9 25  1  0  0  0  0
 10 26  1  0  0  0  0
 13 27  1  0  0  0  0
 14 28  1  0  0  0  0
M  END
> <FRED Chemgauss4 score>
-6.605357

$$$$
MOL0111_1
  -OEChem-06022418023D

 22 23  0     1  0  0  0  0  0999 V2000
    0.2261   13.4025   -2.1527 C   0  0  0  0  0  0  0  0  0  0  0  0
    2.2877   13.7613   -1.2858 C   0  0  0  0  0  0  0  0  0  0  0  0
    0.2840   14.5809   -2.8800 C   0  0  0  0  0  0  0  0  0  0  0  0
    1.4694   15.3117   -2.7680 C   0  0  0  0  0  0  0  0  0  0  0  0
    0.7169   16.7306   -4.6168 C   0  0  0  0  0  0  0  0  0  0  0  0
   -0.7188   16.3354   -4.2504 C   0  0  1  0  0  0  0  0  0  0  0  0
   -1.6326   16.4117   -5.4688 C   0  0  0  0  0  0  0  0  0  0  0  0
    1.2091   12.9642   -1.3421 N   0  0  0  0  0  0  0  0  0  0  0  0
    2.4765   14.9155   -1.9533 N   0  0  0  0  0  0  0  0  0  0  0  0
   -0.7496   14.9846   -3.7067 N   0  0  0  0  0  0  0  0  0  0  0  0
    1.6169   16.4823   -3.5068 N   0  0  0  0  0  0  0  0  0  0  0  0
   -2.9743   16.4892   -5.0226 O   0  0  0  0  0  0  0  0  0  0  0  0
   -0.6464   12.7572   -2.1962 H   0  0  0  0  0  0  0  0  0  0  0  0
    3.0936   13.4419   -0.6366 H   0  0  0  0  0  0  0  0  0  0  0  0
    1.0627   16.1659   -5.4920 H   0  0  0  0  0  0  0  0  0  0  0  0
    0.7595   17.7927   -4.8829 H   0  0  0  0  0  0  0  0  0  0  0  0
   -1.0974   17.0277   -3.4871 H   0  0  0  0  0  0  0  0  0  0  0  0
   -1.5088   15.5201   -6.0839 H   0  0  0  0  0  0  0  0  0  0  0  0
   -1.3970   17.2991   -6.0567 H   0  0  0  0  0  0  0  0  0  0  0  0
   -1.6274   14.4794   -3.6751 H   0  0  0  0  0  0  0  0  0  0  0  0
    2.4888   16.9917   -3.4347 H   0  0  0  0  0  0  0  0  0  0  0  0
   -3.5361   16.5368   -5.8148 H   0  0  0  0  0  0  0  0  0  0  0  0
  1  3  1  0  0  0  0
  1  8  2  0  0  0  0
  2  8  1  0  0  0  0
  2  9  2  0  0  0  0
  3  4  2  0  0  0  0
  3 10  1  0  0  0  0
  4  9  1  0  0  0  0
  4 11  1  0  0  0  0
  5  6  1  0  0  0  0
  5 11  1  0  0  0  0
  6  7  1  0  0  0  0
  6 10  1  0  0  0  0
  7 12  1  0  0  0  0
  1 13  1  0  0  0  0
  2 14  1  0  0  0  0
  5 15  1  0  0  0  0
  5 16  1  0  0  0  0
  6 17  1  0  0  0  0
  7 18  1  0  0  0  0
  7 19  1  0  0  0  0
 10 20  1  0  0  0  0
 11 21  1  0  0  0  0
 12 22  1  0  0  0  0
M  END
> <FRED Chemgauss4 score>
-6.586732

$$$$
MOL0022_1
  -OEChem-06022418023D

 23 24  0     1  0  0  0  0  0999 V2000
   -2.6006   14.9276    0.8817 C   0  0  0  0  0  0  0  0  0  0  0  0
   -0.3242   14.7452    0.9347 C   0  0  0  0  0  0  0  0  0  0  0  0
   -2.5672   14.7837   -0.4805 C   0  0  0  0  0  0  0  0  0  0  0  0
   -1.3310   14.6310   -1.0932 C   0  0  0  0  0  0  0  0  0  0  0  0
   -3.6595   14.7942   -1.4885 C   0  0  0  0  0  0  0  0  0  0  0  0
   -2.9085   14.2789   -2.7333 C   0  0  0  0  0  0  0  0  0  0  0  0
   -0.4423   13.9984   -3.3267 C   0  0  0  0  0  0  0  0  0  0  0  0
    0.4740   15.1288   -3.7584 C   0  0  0  0  0  0  0  0  0  0  0  0
   -1.4767   14.9082    1.6259 N   0  0  0  0  0  0  0  0  0  0  0  0
   -0.1783   14.6046   -0.4011 N   0  0  0  0  0  0  0  0  0  0  0  0
   -1.4892   14.5194   -2.4872 N   0  0  2  0  0  0  0  0  0  0  0  0
   -0.2694   16.0773   -4.5130 O   0  0  0  0  0  0  0  0  0  0  0  0
   -3.5271   15.0641    1.4258 H   0  0  0  0  0  0  0  0  0  0  0  0
    0.5869   14.7277    1.5210 H   0  0  0  0  0  0  0  0  0  0  0  0
   -4.4837   14.1292   -1.2160 H   0  0  0  0  0  0  0  0  0  0  0  0
   -4.0265   15.8140   -1.6418 H   0  0  0  0  0  0  0  0  0  0  0  0
   -3.0848   13.2019   -2.8543 H   0  0  0  0  0  0  0  0  0  0  0  0
   -3.2529   14.7809   -3.6436 H   0  0  0  0  0  0  0  0  0  0  0  0
   -0.9058   13.5114   -4.1905 H   0  0  0  0  0  0  0  0  0  0  0  0
    0.1165   13.2533   -2.7525 H   0  0  0  0  0  0  0  0  0  0  0  0
    1.2731   14.7402   -4.3974 H   0  0  0  0  0  0  0  0  0  0  0  0
    0.9206   15.6362   -2.8971 H   0  0  0  0  0  0  0  0  0  0  0  0
    0.3506   16.7794   -4.7680 H   0  0  0  0  0  0  0  0  0  0  0  0
  1  3  1  0  0  0  0
  1  9  2  0  0  0  0
  2  9  1  0  0  0  0
  2 10  2  0  0  0  0
  3  4  2  0  0  0  0
  3  5  1  0  0  0  0
  4 10  1  0  0  0  0
  4 11  1  0  0  0  0
  5  6  1  0  0  0  0
  6 11  1  0  0  0  0
  7  8  1  0  0  0  0
  7 11  1  0  0  0  0
  8 12  1  0  0  0  0
  1 13  1  0  0  0  0
  2 14  1  0  0  0  0
  5 15  1  0  0  0  0
  5 16  1  0  0  0  0
  6 17  1  0  0  0  0
  6 18  1  0  0  0  0
  7 19  1  0  0  0  0
  7 20  1  0  0  0  0
  8 21  1  0  0  0  0
  8 22  1  0  0  0  0
 12 23  1  0  0  0  0
M  END
> <FRED Chemgauss4 score>
-6.584225

$$$$
MOL0104_3
  -OEChem-06022418023D

 26 28  0     0  0  0  0  0  0999 V2000
   -4.4191   15.3267   -0.1251 C   0  0  0  0  0  0  0  0  0  0  0  0
   -5.4435   14.5907   -0.7205 C   0  0  0  0  0  0  0  0  0  0  0  0
   -3.1219   15.2537   -0.6328 C   0  0  0  0  0  0  0  0  0  0  0  0
   -5.1707   13.7816   -1.8235 C   0  0  0  0  0  0  0  0  0  0  0  0
   -0.1327   14.0719   -4.0570 C   0  0  0  0  0  0  0  0  0  0  0  0
   -2.8491   14.4447   -1.7358 C   0  0  0  0  0  0  0  0  0  0  0  0
    0.9534   14.2294   -3.2374 C   0  0  0  0  0  0  0  0  0  0  0  0
   -3.8735   13.7086   -2.3312 C   0  0  0  0  0  0  0  0  0  0  0  0
    0.7223   14.4714   -1.8928 C   0  0  0  0  0  0  0  0  0  0  0  0
   -1.5080   14.3726   -2.2562 C   0  0  0  0  0  0  0  0  0  0  0  0
    2.4099   14.2334   -3.5334 C   0  0  0  0  0  0  0  0  0  0  0  0
    3.0098   14.2496   -2.1106 C   0  0  0  0  0  0  0  0  0  0  0  0
   -1.3943   14.1354   -3.5849 N   0  0  0  0  0  0  0  0  0  0  0  0
   -0.5095   14.5507   -1.3638 N   0  0  0  0  0  0  0  0  0  0  0  0
    1.9356   14.6206   -1.2049 N   0  0  0  0  0  0  0  0  0  0  0  0
   -3.6277   12.9247   -3.3912 F   0  0  0  0  0  0  0  0  0  0  0  0
   -4.6318   15.9567    0.7336 H   0  0  0  0  0  0  0  0  0  0  0  0
   -6.4534   14.6474   -0.3252 H   0  0  0  0  0  0  0  0  0  0  0  0
   -2.3343   15.8334   -0.1574 H   0  0  0  0  0  0  0  0  0  0  0  0
   -5.9682   13.2085   -2.2871 H   0  0  0  0  0  0  0  0  0  0  0  0
   -0.0328   13.8923   -5.1205 H   0  0  0  0  0  0  0  0  0  0  0  0
    2.7197   13.3420   -4.0859 H   0  0  0  0  0  0  0  0  0  0  0  0
    2.6841   15.1376   -4.0859 H   0  0  0  0  0  0  0  0  0  0  0  0
    3.3784   13.2511   -1.8464 H   0  0  0  0  0  0  0  0  0  0  0  0
    3.8502   14.9476   -2.0403 H   0  0  0  0  0  0  0  0  0  0  0  0
    2.0134   14.7385   -0.2068 H   0  0  0  0  0  0  0  0  0  0  0  0
  1  2  1  0  0  0  0
  1  3  2  0  0  0  0
  2  4  2  0  0  0  0
  3  6  1  0  0  0  0
  4  8  1  0  0  0  0
  5  7  1  0  0  0  0
  5 13  2  0  0  0  0
  6  8  2  0  0  0  0
  6 10  1  0  0  0  0
  7  9  2  0  0  0  0
  7 11  1  0  0  0  0
  8 16  1  0  0  0  0
  9 14  1  0  0  0  0
  9 15  1  0  0  0  0
 10 13  1  0  0  0  0
 10 14  2  0  0  0  0
 11 12  1  0  0  0  0
 12 15  1  0  0  0  0
  1 17  1  0  0  0  0
  2 18  1  0  0  0  0
  3 19  1  0  0  0  0
  4 20  1  0  0  0  0
  5 21  1  0  0  0  0
 11 22  1  0  0  0  0
 11 23  1  0  0  0  0
 12 24  1  0  0  0  0
 12 25  1  0  0  0  0
 15 26  1  0  0  0  0
M  END
> <FRED Chemgauss4 score>
-6.583106

$$$$
MOL0119_8
  -OEChem-06022418023D

 27 29  0     0  0  0  0  0  0999 V2000
    1.7100   15.2352   -3.7196 C   0  0  0  0  0  0  0  0  0  0  0  0
    1.2707   13.9193   -3.5748 C   0  0  0  0  0  0  0  0  0  0  0  0
    0.8020   16.2412   -4.0503 C   0  0  0  0  0  0  0  0  0  0  0  0
   -0.0764   13.6092   -3.7609 C   0  0  0  0  0  0  0  0  0  0  0  0
   -0.5451   15.9311   -4.2364 C   0  0  0  0  0  0  0  0  0  0  0  0
   -2.9466   14.9567   -0.4908 C   0  0  0  0  0  0  0  0  0  0  0  0
   -4.2696   14.7394   -0.2098 C   0  0  0  0  0  0  0  0  0  0  0  0
   -0.9844   14.6152   -4.0917 C   0  0  0  0  0  0  0  0  0  0  0  0
   -5.1010   14.3621   -1.2520 C   0  0  0  0  0  0  0  0  0  0  0  0
   -3.3466   14.4272   -2.6781 C   0  0  0  0  0  0  0  0  0  0  0  0
   -5.0364   14.8780    1.0558 C   0  0  0  0  0  0  0  0  0  0  0  0
   -6.3966   14.2661    0.6563 C   0  0  0  0  0  0  0  0  0  0  0  0
   -2.4496   14.8014   -1.7348 N   0  0  0  0  0  0  0  0  0  0  0  0
   -4.6672   14.1960   -2.5120 N   0  0  0  0  0  0  0  0  0  0  0  0
   -6.4168   14.1958   -0.7951 N   0  0  0  0  0  0  0  0  0  0  0  0
   -2.7099   14.2177   -4.3306 S   0  0  0  0  0  0  0  0  0  0  0  0
    2.7591   15.4760   -3.5746 H   0  0  0  0  0  0  0  0  0  0  0  0
    1.9775   13.1357   -3.3176 H   0  0  0  0  0  0  0  0  0  0  0  0
    1.1448   17.2655   -4.1627 H   0  0  0  0  0  0  0  0  0  0  0  0
   -0.3998   12.5778   -3.6440 H   0  0  0  0  0  0  0  0  0  0  0  0
   -1.2377   16.7287   -4.4941 H   0  0  0  0  0  0  0  0  0  0  0  0
   -2.2379   15.2654    0.2679 H   0  0  0  0  0  0  0  0  0  0  0  0
   -4.5764   14.3231    1.8783 H   0  0  0  0  0  0  0  0  0  0  0  0
   -5.1436   15.9342    1.3228 H   0  0  0  0  0  0  0  0  0  0  0  0
   -6.4901   13.2547    1.0697 H   0  0  0  0  0  0  0  0  0  0  0  0
   -7.2302   14.8639    1.0386 H   0  0  0  0  0  0  0  0  0  0  0  0
   -7.1788   13.8612   -1.3637 H   0  0  0  0  0  0  0  0  0  0  0  0
  1  2  1  0  0  0  0
  1  3  2  0  0  0  0
  2  4  2  0  0  0  0
  3  5  1  0  0  0  0
  4  8  1  0  0  0  0
  5  8  2  0  0  0  0
  6  7  1  0  0  0  0
  6 13  2  0  0  0  0
  7  9  2  0  0  0  0
  7 11  1  0  0  0  0
  8 16  1  0  0  0  0
  9 14  1  0  0  0  0
  9 15  1  0  0  0  0
 10 13  1  0  0  0  0
 10 14  2  0  0  0  0
 10 16  1  0  0  0  0
 11 12  1  0  0  0  0
 12 15  1  0  0  0  0
  1 17  1  0  0  0  0
  2 18  1  0  0  0  0
  3 19  1  0  0  0  0
  4 20  1  0  0  0  0
  5 21  1  0  0  0  0
  6 22  1  0  0  0  0
 11 23  1  0  0  0  0
 11 24  1  0  0  0  0
 12 25  1  0  0  0  0
 12 26  1  0  0  0  0
 15 27  1  0  0  0  0
M  END
> <FRED Chemgauss4 score>
-6.581998

$$$$
MOL0006_1
  -OEChem-06022418023D

 22 23  0     0  0  0  0  0  0999 V2000
   -1.2828   14.8509   -0.9605 C   0  0  0  0  0  0  0  0  0  0  0  0
   -0.0199   15.0140    0.9360 C   0  0  0  0  0  0  0  0  0  0  0  0
   -2.4225   14.9008   -0.1973 C   0  0  0  0  0  0  0  0  0  0  0  0
   -2.2701   15.0137    1.1764 C   0  0  0  0  0  0  0  0  0  0  0  0
   -4.5393   14.7383    0.8291 C   0  0  0  0  0  0  0  0  0  0  0  0
   -3.8748   14.8830   -0.5759 C   0  0  0  0  0  0  0  0  0  0  0  0
   -4.2295   13.7018   -1.4818 C   0  0  0  0  0  0  0  0  0  0  0  0
   -4.2743   16.2067   -1.2392 C   0  0  0  0  0  0  0  0  0  0  0  0
   -0.0517   14.9036   -0.4123 N   0  0  0  0  0  0  0  0  0  0  0  0
   -1.0717   15.0757    1.7805 N   0  0  0  0  0  0  0  0  0  0  0  0
   -3.5175   15.0594    1.8129 N   0  0  0  0  0  0  0  0  0  0  0  0
   -1.3138   14.7717   -2.0404 H   0  0  0  0  0  0  0  0  0  0  0  0
    0.9632   15.0586    1.3895 H   0  0  0  0  0  0  0  0  0  0  0  0
   -5.4090   15.3938    0.9474 H   0  0  0  0  0  0  0  0  0  0  0  0
   -4.8772   13.7092    1.0030 H   0  0  0  0  0  0  0  0  0  0  0  0
   -5.2888   13.7337   -1.7270 H   0  0  0  0  0  0  0  0  0  0  0  0
   -4.0075   12.7682   -0.9698 H   0  0  0  0  0  0  0  0  0  0  0  0
   -3.6469   13.7559   -2.3988 H   0  0  0  0  0  0  0  0  0  0  0  0
   -5.3272   16.1756   -1.5060 H   0  0  0  0  0  0  0  0  0  0  0  0
   -3.6786   16.3578   -2.1354 H   0  0  0  0  0  0  0  0  0  0  0  0
   -4.1007   17.0263   -0.5471 H   0  0  0  0  0  0  0  0  0  0  0  0
   -3.6435   15.0746    2.8131 H   0  0  0  0  0  0  0  0  0  0  0  0
  1  3  1  0  0  0  0
  1  9  2  0  0  0  0
  2  9  1  0  0  0  0
  2 10  2  0  0  0  0
  3  4  2  0  0  0  0
  3  6  1  0  0  0  0
  4 10  1  0  0  0  0
  4 11  1  0  0  0  0
  5  6  1  0  0  0  0
  5 11  1  0  0  0  0
  6  7  1  0  0  0  0
  6  8  1  0  0  0  0
  1 12  1  0  0  0  0
  2 13  1  0  0  0  0
  5 14  1  0  0  0  0
  5 15  1  0  0  0  0
  7 16  1  0  0  0  0
  7 17  1  0  0  0  0
  7 18  1  0  0  0  0
  8 19  1  0  0  0  0
  8 20  1  0  0  0  0
  8 21  1  0  0  0  0
 11 22  1  0  0  0  0
M  END
> <FRED Chemgauss4 score>
-6.578802

$$$$
MOL0200_1
  -OEChem-06022418023D

 26 28  0     0  0  0  0  0  0999 V2000
    1.1344   15.2807   -1.9068 C   0  0  0  0  0  0  0  0  0  0  0  0
   -1.4033   14.3613   -4.2561 C   0  0  0  0  0  0  0  0  0  0  0  0
    2.0953   15.0430   -3.9432 C   0  0  0  0  0  0  0  0  0  0  0  0
   -0.1166   14.9609   -2.3987 C   0  0  0  0  0  0  0  0  0  0  0  0
   -0.1523   14.6811   -3.7643 C   0  0  0  0  0  0  0  0  0  0  0  0
   -2.3642   14.5990   -2.2198 C   0  0  0  0  0  0  0  0  0  0  0  0
   -5.7805   14.6136   -0.7228 C   0  0  0  0  0  0  0  0  0  0  0  0
   -4.9125   14.3626    0.4936 C   0  0  0  0  0  0  0  0  0  0  0  0
   -4.8645   14.2216   -1.8766 C   0  0  0  0  0  0  0  0  0  0  0  0
   -3.5403   14.8397    0.0319 C   0  0  0  0  0  0  0  0  0  0  0  0
    2.2625   15.3326   -2.6447 N   0  0  0  0  0  0  0  0  0  0  0  0
   -2.5313   14.3093   -3.5183 N   0  0  0  0  0  0  0  0  0  0  0  0
    0.9406   14.7171   -4.5507 N   0  0  0  0  0  0  0  0  0  0  0  0
   -1.2094   14.9249   -1.6123 N   0  0  0  0  0  0  0  0  0  0  0  0
   -3.5139   14.5563   -1.4082 N   0  0  0  0  0  0  0  0  0  0  0  0
    1.2750   15.5154   -0.8554 H   0  0  0  0  0  0  0  0  0  0  0  0
   -1.5425   14.1276   -5.3080 H   0  0  0  0  0  0  0  0  0  0  0  0
    2.9794   15.0749   -4.5673 H   0  0  0  0  0  0  0  0  0  0  0  0
   -6.7029   14.0265   -0.7057 H   0  0  0  0  0  0  0  0  0  0  0  0
   -6.0450   15.6754   -0.7908 H   0  0  0  0  0  0  0  0  0  0  0  0
   -5.2657   14.9030    1.3763 H   0  0  0  0  0  0  0  0  0  0  0  0
   -4.8844   13.2923    0.7290 H   0  0  0  0  0  0  0  0  0  0  0  0
   -4.9182   13.1425   -2.0799 H   0  0  0  0  0  0  0  0  0  0  0  0
   -5.1268   14.7611   -2.7970 H   0  0  0  0  0  0  0  0  0  0  0  0
   -3.4213   15.9216    0.1879 H   0  0  0  0  0  0  0  0  0  0  0  0
   -2.7342   14.3218    0.5690 H   0  0  0  0  0  0  0  0  0  0  0  0
  1  4  1  0  0  0  0
  1 11  2  0  0  0  0
  2  5  1  0  0  0  0
  2 12  2  0  0  0  0
  3 11  1  0  0  0  0
  3 13  2  0  0  0  0
  4  5  2  0  0  0  0
  4 14  1  0  0  0  0
  5 13  1  0  0  0  0
  6 12  1  0  0  0  0
  6 14  2  0  0  0  0
  6 15  1  0  0  0  0
  7  8  1  0  0  0  0
  7  9  1  0  0  0  0
  8 10  1  0  0  0  0
  9 15  1  0  0  0  0
 10 15  1  0  0  0  0
  1 16  1  0  0  0  0
  2 17  1  0  0  0  0
  3 18  1  0  0  0  0
  7 19  1  0  0  0  0
  7 20  1  0  0  0  0
  8 21  1  0  0  0  0
  8 22  1  0  0  0  0
  9 23  1  0  0  0  0
  9 24  1  0  0  0  0
 10 25  1  0  0  0  0
 10 26  1  0  0  0  0
M  END
> <FRED Chemgauss4 score>
-6.572124

$$$$
MOL0178_3
  -OEChem-06022418023D

 27 28  0     0  0  0  0  0  0999 V2000
   -0.0260   14.7858    0.9205 C   0  0  0  0  0  0  0  0  0  0  0  0
   -2.2857   14.7142   -0.5313 C   0  0  0  0  0  0  0  0  0  0  0  0
   -2.3045   14.9087    0.8459 C   0  0  0  0  0  0  0  0  0  0  0  0
   -1.0356   14.5410   -1.0995 C   0  0  0  0  0  0  0  0  0  0  0  0
   -3.5513   14.6271   -1.3285 C   0  0  0  0  0  0  0  0  0  0  0  0
   -3.6138   15.1415    1.5553 C   0  0  0  0  0  0  0  0  0  0  0  0
   -4.7571   15.1805   -0.5637 C   0  0  0  0  0  0  0  0  0  0  0  0
    0.8562   15.4124   -3.6399 C   0  0  0  0  0  0  0  0  0  0  0  0
    0.2975   14.1143   -3.1651 C   0  0  0  0  0  0  0  0  0  0  0  0
   -1.1792   14.9592    1.5942 N   0  0  0  0  0  0  0  0  0  0  0  0
    0.1171   14.5750   -0.4008 N   0  0  0  0  0  0  0  0  0  0  0  0
   -4.7792   14.6596    0.8045 N   0  0  0  0  0  0  0  0  0  0  0  0
   -0.9470   14.3043   -2.4933 N   0  0  0  0  0  0  0  0  0  0  0  0
    0.8846   14.8201    1.5058 H   0  0  0  0  0  0  0  0  0  0  0  0
   -3.4560   15.1860   -2.2667 H   0  0  0  0  0  0  0  0  0  0  0  0
   -3.7317   13.5739   -1.5787 H   0  0  0  0  0  0  0  0  0  0  0  0
   -3.5941   14.6383    2.5285 H   0  0  0  0  0  0  0  0  0  0  0  0
   -3.7217   16.2152    1.7504 H   0  0  0  0  0  0  0  0  0  0  0  0
   -4.7345   16.2777   -0.5450 H   0  0  0  0  0  0  0  0  0  0  0  0
   -5.6809   14.8944   -1.0783 H   0  0  0  0  0  0  0  0  0  0  0  0
    1.0155   16.0800   -2.7803 H   0  0  0  0  0  0  0  0  0  0  0  0
    1.8152   15.2345   -4.1485 H   0  0  0  0  0  0  0  0  0  0  0  0
    0.1502   15.8805   -4.3417 H   0  0  0  0  0  0  0  0  0  0  0  0
    0.1412   13.4528   -4.0300 H   0  0  0  0  0  0  0  0  0  0  0  0
    1.0125   13.6480   -2.4713 H   0  0  0  0  0  0  0  0  0  0  0  0
   -4.7623   13.6399    0.7757 H   0  0  0  0  0  0  0  0  0  0  0  0
   -1.8090   14.2764   -2.9990 H   0  0  0  0  0  0  0  0  0  0  0  0
  1 10  1  0  0  0  0
  1 11  2  0  0  0  0
  2  3  1  0  0  0  0
  2  4  2  0  0  0  0
  2  5  1  0  0  0  0
  3  6  1  0  0  0  0
  3 10  2  0  0  0  0
  4 11  1  0  0  0  0
  4 13  1  0  0  0  0
  5  7  1  0  0  0  0
  6 12  1  0  0  0  0
  7 12  1  0  0  0  0
  8  9  1  0  0  0  0
  9 13  1  0  0  0  0
  1 14  1  0  0  0  0
  5 15  1  0  0  0  0
  5 16  1  0  0  0  0
  6 17  1  0  0  0  0
  6 18  1  0  0  0  0
  7 19  1  0  0  0  0
  7 20  1  0  0  0  0
  8 21  1  0  0  0  0
  8 22  1  0  0  0  0
  8 23  1  0  0  0  0
  9 24  1  0  0  0  0
  9 25  1  0  0  0  0
 12 26  1  0  0  0  0
 13 27  1  0  0  0  0
M  END
> <FRED Chemgauss4 score>
-6.568594

$$$$
MOL0098_1
  -OEChem-06022418023D

 26 28  0     0  0  0  0  0  0999 V2000
   -4.6570   13.6971   -2.0776 C   0  0  0  0  0  0  0  0  0  0  0  0
   -3.3633   13.4791   -2.5514 C   0  0  0  0  0  0  0  0  0  0  0  0
   -4.8691   14.5541   -0.9976 C   0  0  0  0  0  0  0  0  0  0  0  0
   -2.4938   14.9750   -0.8651 C   0  0  0  0  0  0  0  0  0  0  0  0
    0.4249   13.4152   -4.2004 C   0  0  0  0  0  0  0  0  0  0  0  0
   -2.2817   14.1180   -1.9451 C   0  0  0  0  0  0  0  0  0  0  0  0
    1.5055   13.4752   -3.3608 C   0  0  0  0  0  0  0  0  0  0  0  0
   -3.7875   15.1930   -0.3914 C   0  0  0  0  0  0  0  0  0  0  0  0
    1.2751   13.7677   -2.0262 C   0  0  0  0  0  0  0  0  0  0  0  0
   -0.9457   13.8953   -2.4353 C   0  0  0  0  0  0  0  0  0  0  0  0
    2.9598   13.3206   -3.6255 C   0  0  0  0  0  0  0  0  0  0  0  0
    3.5305   13.3034   -2.1909 C   0  0  0  0  0  0  0  0  0  0  0  0
   -0.8319   13.6201   -3.7566 N   0  0  0  0  0  0  0  0  0  0  0  0
    0.0485   13.9865   -1.5252 N   0  0  0  0  0  0  0  0  0  0  0  0
    2.4839   13.8034   -1.3153 N   0  0  0  0  0  0  0  0  0  0  0  0
   -3.9919   16.0164    0.6450 F   0  0  0  0  0  0  0  0  0  0  0  0
   -5.4995   13.2004   -2.5499 H   0  0  0  0  0  0  0  0  0  0  0  0
   -3.2144   12.8078   -3.3939 H   0  0  0  0  0  0  0  0  0  0  0  0
   -5.8764   14.7252   -0.6298 H   0  0  0  0  0  0  0  0  0  0  0  0
   -1.6613   15.4819   -0.3832 H   0  0  0  0  0  0  0  0  0  0  0  0
    0.5259   13.2041   -5.2580 H   0  0  0  0  0  0  0  0  0  0  0  0
    3.1850   12.3904   -4.1547 H   0  0  0  0  0  0  0  0  0  0  0  0
    3.3381   14.1796   -4.1888 H   0  0  0  0  0  0  0  0  0  0  0  0
    3.7870   12.2775   -1.9003 H   0  0  0  0  0  0  0  0  0  0  0  0
    4.4380   13.9110   -2.1155 H   0  0  0  0  0  0  0  0  0  0  0  0
    2.5543   13.9332   -0.3182 H   0  0  0  0  0  0  0  0  0  0  0  0
  1  2  1  0  0  0  0
  1  3  2  0  0  0  0
  2  6  2  0  0  0  0
  3  8  1  0  0  0  0
  4  6  1  0  0  0  0
  4  8  2  0  0  0  0
  5  7  1  0  0  0  0
  5 13  2  0  0  0  0
  6 10  1  0  0  0  0
  7  9  2  0  0  0  0
  7 11  1  0  0  0  0
  8 16  1  0  0  0  0
  9 14  1  0  0  0  0
  9 15  1  0  0  0  0
 10 13  1  0  0  0  0
 10 14  2  0  0  0  0
 11 12  1  0  0  0  0
 12 15  1  0  0  0  0
  1 17  1  0  0  0  0
  2 18  1  0  0  0  0
  3 19  1  0  0  0  0
  4 20  1  0  0  0  0
  5 21  1  0  0  0  0
 11 22  1  0  0  0  0
 11 23  1  0  0  0  0
 12 24  1  0  0  0  0
 12 25  1  0  0  0  0
 15 26  1  0  0  0  0
M  END
> <FRED Chemgauss4 score>
-6.565320

$$$$
MOL0011_2
  -OEChem-06022418023D

 26 28  0     0  0  0  0  0  0999 V2000
   -5.0512   14.8919   -0.4013 C   0  0  0  0  0  0  0  0  0  0  0  0
   -4.9676   13.9641   -1.4394 C   0  0  0  0  0  0  0  0  0  0  0  0
   -3.9053   15.5587    0.0322 C   0  0  0  0  0  0  0  0  0  0  0  0
   -3.7380   13.7030   -2.0441 C   0  0  0  0  0  0  0  0  0  0  0  0
   -2.6757   15.2976   -0.5725 C   0  0  0  0  0  0  0  0  0  0  0  0
   -0.1672   13.4878   -4.1103 C   0  0  0  0  0  0  0  0  0  0  0  0
   -2.5921   14.3698   -1.6106 C   0  0  0  0  0  0  0  0  0  0  0  0
    1.0036   13.5920   -3.4069 C   0  0  0  0  0  0  0  0  0  0  0  0
    0.9303   13.9758   -2.0776 C   0  0  0  0  0  0  0  0  0  0  0  0
   -1.3226   14.1000   -2.2355 C   0  0  0  0  0  0  0  0  0  0  0  0
    2.4169   13.4041   -3.8266 C   0  0  0  0  0  0  0  0  0  0  0  0
    3.1499   13.4767   -2.4695 C   0  0  0  0  0  0  0  0  0  0  0  0
   -1.3635   13.7357   -3.5393 N   0  0  0  0  0  0  0  0  0  0  0  0
   -0.2294   14.2410   -1.4544 N   0  0  0  0  0  0  0  0  0  0  0  0
    2.2134   14.0457   -1.5150 N   0  0  0  0  0  0  0  0  0  0  0  0
   -6.0090   15.0962    0.0683 H   0  0  0  0  0  0  0  0  0  0  0  0
   -5.8600   13.4461   -1.7782 H   0  0  0  0  0  0  0  0  0  0  0  0
   -3.9699   16.2822    0.8396 H   0  0  0  0  0  0  0  0  0  0  0  0
   -3.6893   12.9771   -2.8524 H   0  0  0  0  0  0  0  0  0  0  0  0
   -1.7911   15.8255   -0.2243 H   0  0  0  0  0  0  0  0  0  0  0  0
   -0.1900   13.2053   -5.1557 H   0  0  0  0  0  0  0  0  0  0  0  0
    2.5763   12.4381   -4.3140 H   0  0  0  0  0  0  0  0  0  0  0  0
    2.7302   14.2192   -4.4867 H   0  0  0  0  0  0  0  0  0  0  0  0
    3.4352   12.4698   -2.1416 H   0  0  0  0  0  0  0  0  0  0  0  0
    4.0620   14.0780   -2.5407 H   0  0  0  0  0  0  0  0  0  0  0  0
    2.3993   14.2412   -0.5437 H   0  0  0  0  0  0  0  0  0  0  0  0
  1  2  1  0  0  0  0
  1  3  2  0  0  0  0
  2  4  2  0  0  0  0
  3  5  1  0  0  0  0
  4  7  1  0  0  0  0
  5  7  2  0  0  0  0
  6  8  1  0  0  0  0
  6 13  2  0  0  0  0
  7 10  1  0  0  0  0
  8  9  2  0  0  0  0
  8 11  1  0  0  0  0
  9 14  1  0  0  0  0
  9 15  1  0  0  0  0
 10 13  1  0  0  0  0
 10 14  2  0  0  0  0
 11 12  1  0  0  0  0
 12 15  1  0  0  0  0
  1 16  1  0  0  0  0
  2 17  1  0  0  0  0
  3 18  1  0  0  0  0
  4 19  1  0  0  0  0
  5 20  1  0  0  0  0
  6 21  1  0  0  0  0
 11 22  1  0  0  0  0
 11 23  1  0  0  0  0
 12 24  1  0  0  0  0
 12 25  1  0  0  0  0
 15 26  1  0  0  0  0
M  END
> <FRED Chemgauss4 score>
-6.562118

$$$$
MOL0192_1
  -OEChem-06022418023D

 21 22  0     0  0  0  0  0  0999 V2000
   -2.3448   14.9747    1.1567 C   0  0  0  0  0  0  0  0  0  0  0  0
   -0.0925   14.5269    1.2185 C   0  0  0  0  0  0  0  0  0  0  0  0
   -2.3817   14.9074   -0.2318 C   0  0  0  0  0  0  0  0  0  0  0  0
   -1.1872   14.6073   -0.8997 C   0  0  0  0  0  0  0  0  0  0  0  0
   -0.0170   14.4262   -0.1614 C   0  0  0  0  0  0  0  0  0  0  0  0
   -1.1592   14.5436   -2.4048 C   0  0  0  0  0  0  0  0  0  0  0  0
   -3.6708   15.0808   -0.9872 C   0  0  0  0  0  0  0  0  0  0  0  0
   -2.5573   14.3945   -3.0105 C   0  0  0  0  0  0  0  0  0  0  0  0
   -1.2288   14.7944    1.8982 N   0  0  0  0  0  0  0  0  0  0  0  0
   -3.4764   15.3644   -2.4145 N   0  0  0  0  0  0  0  0  0  0  0  0
    1.1745   14.1624   -0.7573 O   0  0  0  0  0  0  0  0  0  0  0  0
   -3.2424   15.1813    1.7316 H   0  0  0  0  0  0  0  0  0  0  0  0
    0.7885   14.3926    1.8385 H   0  0  0  0  0  0  0  0  0  0  0  0
   -0.6946   15.4651   -2.7782 H   0  0  0  0  0  0  0  0  0  0  0  0
   -0.5453   13.6980   -2.7367 H   0  0  0  0  0  0  0  0  0  0  0  0
   -4.2740   14.1719   -0.8699 H   0  0  0  0  0  0  0  0  0  0  0  0
   -4.2359   15.9136   -0.5538 H   0  0  0  0  0  0  0  0  0  0  0  0
   -2.5001   14.5631   -4.0915 H   0  0  0  0  0  0  0  0  0  0  0  0
   -2.9364   13.3748   -2.8653 H   0  0  0  0  0  0  0  0  0  0  0  0
   -4.3778   15.3169   -2.8886 H   0  0  0  0  0  0  0  0  0  0  0  0
    1.8748   14.0711   -0.0901 H   0  0  0  0  0  0  0  0  0  0  0  0
  1  3  2  0  0  0  0
  1  9  1  0  0  0  0
  2  5  1  0  0  0  0
  2  9  2  0  0  0  0
  3  4  1  0  0  0  0
  3  7  1  0  0  0  0
  4  5  2  0  0  0  0
  4  6  1  0  0  0  0
  5 11  1  0  0  0  0
  6  8  1  0  0  0  0
  7 10  1  0  0  0  0
  8 10  1  0  0  0  0
  1 12  1  0  0  0  0
  2 13  1  0  0  0  0
  6 14  1  0  0  0  0
  6 15  1  0  0  0  0
  7 16  1  0  0  0  0
  7 17  1  0  0  0  0
  8 18  1  0  0  0  0
  8 19  1  0  0  0  0
 10 20  1  0  0  0  0
 11 21  1  0  0  0  0
M  END
> <FRED Chemgauss4 score>
-6.538166

$$$$
MOL0003_1
  -OEChem-06022418023D

 19 20  0     0  0  0  0  0  0999 V2000
    0.2263   13.6477   -1.9697 C   0  0  0  0  0  0  0  0  0  0  0  0
    0.3199   14.6714   -2.8751 C   0  0  0  0  0  0  0  0  0  0  0  0
    1.5271   15.3446   -2.9713 C   0  0  0  0  0  0  0  0  0  0  0  0
    2.4035   14.0059   -1.3727 C   0  0  0  0  0  0  0  0  0  0  0  0
   -0.6892   15.2597   -3.7941 C   0  0  0  0  0  0  0  0  0  0  0  0
    0.1860   16.2107   -4.6389 C   0  0  0  0  0  0  0  0  0  0  0  0
    3.5679   13.6202   -0.5237 C   0  0  0  0  0  0  0  0  0  0  0  0
    1.2702   13.2854   -1.1966 N   0  0  0  0  0  0  0  0  0  0  0  0
    2.6004   15.0344   -2.2261 N   0  0  0  0  0  0  0  0  0  0  0  0
    1.4452   16.3653   -3.9300 N   0  0  0  0  0  0  0  0  0  0  0  0
   -0.6870   13.0832   -1.8279 H   0  0  0  0  0  0  0  0  0  0  0  0
   -1.1692   14.5008   -4.4185 H   0  0  0  0  0  0  0  0  0  0  0  0
   -1.4414   15.8176   -3.2281 H   0  0  0  0  0  0  0  0  0  0  0  0
    0.3768   15.7700   -5.6246 H   0  0  0  0  0  0  0  0  0  0  0  0
   -0.3068   17.1760   -4.7914 H   0  0  0  0  0  0  0  0  0  0  0  0
    4.1741   12.8595   -1.0302 H   0  0  0  0  0  0  0  0  0  0  0  0
    4.2062   14.4862   -0.3063 H   0  0  0  0  0  0  0  0  0  0  0  0
    3.2393   13.2169    0.4430 H   0  0  0  0  0  0  0  0  0  0  0  0
    2.2209   16.9429   -4.2146 H   0  0  0  0  0  0  0  0  0  0  0  0
  1  2  1  0  0  0  0
  1  8  2  0  0  0  0
  2  3  2  0  0  0  0
  2  5  1  0  0  0  0
  3  9  1  0  0  0  0
  3 10  1  0  0  0  0
  4  7  1  0  0  0  0
  4  8  1  0  0  0  0
  4  9  2  0  0  0  0
  5  6  1  0  0  0  0
  6 10  1  0  0  0  0
  1 11  1  0  0  0  0
  5 12  1  0  0  0  0
  5 13  1  0  0  0  0
  6 14  1  0  0  0  0
  6 15  1  0  0  0  0
  7 16  1  0  0  0  0
  7 17  1  0  0  0  0
  7 18  1  0  0  0  0
 10 19  1  0  0  0  0
M  END
> <FRED Chemgauss4 score>
-6.537959

$$$$
MOL0227_2
  -OEChem-06022418023D

 23 25  0     0  0  0  0  0  0999 V2000
   -4.2487   15.0946   -0.0446 C   0  0  0  0  0  0  0  0  0  0  0  0
   -2.8476   14.9661   -0.2695 C   0  0  0  0  0  0  0  0  0  0  0  0
   -0.0961   13.9157   -4.0807 C   0  0  0  0  0  0  0  0  0  0  0  0
   -4.9797   14.8648   -1.1893 C   0  0  0  0  0  0  0  0  0  0  0  0
    1.0644   14.0112   -3.3591 C   0  0  0  0  0  0  0  0  0  0  0  0
   -2.5611   14.6428   -1.5777 C   0  0  0  0  0  0  0  0  0  0  0  0
    0.9684   14.3358   -2.0155 C   0  0  0  0  0  0  0  0  0  0  0  0
   -1.2845   14.4247   -2.1957 C   0  0  0  0  0  0  0  0  0  0  0  0
    2.4858   13.8680   -3.7691 C   0  0  0  0  0  0  0  0  0  0  0  0
    3.2015   13.8956   -2.4012 C   0  0  0  0  0  0  0  0  0  0  0  0
   -1.3034   14.1164   -3.5144 N   0  0  0  0  0  0  0  0  0  0  0  0
   -0.2032   14.5522   -1.3959 N   0  0  0  0  0  0  0  0  0  0  0  0
    2.2433   14.4053   -1.4347 N   0  0  0  0  0  0  0  0  0  0  0  0
   -3.9778   14.4958   -2.5282 S   0  0  0  0  0  0  0  0  0  0  0  0
   -4.6980   15.3423    0.9082 H   0  0  0  0  0  0  0  0  0  0  0  0
   -2.0940   15.1043    0.4961 H   0  0  0  0  0  0  0  0  0  0  0  0
   -0.1015   13.6782   -5.1375 H   0  0  0  0  0  0  0  0  0  0  0  0
   -6.0541   14.8954   -1.3033 H   0  0  0  0  0  0  0  0  0  0  0  0
    2.6692   12.9271   -4.2954 H   0  0  0  0  0  0  0  0  0  0  0  0
    2.7910   14.7166   -4.3896 H   0  0  0  0  0  0  0  0  0  0  0  0
    3.5022   12.8810   -2.1133 H   0  0  0  0  0  0  0  0  0  0  0  0
    4.1026   14.5163   -2.4353 H   0  0  0  0  0  0  0  0  0  0  0  0
    2.4143   14.5620   -0.4537 H   0  0  0  0  0  0  0  0  0  0  0  0
  1  2  1  0  0  0  0
  1  4  2  0  0  0  0
  2  6  2  0  0  0  0
  3  5  1  0  0  0  0
  3 11  2  0  0  0  0
  4 14  1  0  0  0  0
  5  7  2  0  0  0  0
  5  9  1  0  0  0  0
  6  8  1  0  0  0  0
  6 14  1  0  0  0  0
  7 12  1  0  0  0  0
  7 13  1  0  0  0  0
  8 11  1  0  0  0  0
  8 12  2  0  0  0  0
  9 10  1  0  0  0  0
 10 13  1  0  0  0  0
  1 15  1  0  0  0  0
  2 16  1  0  0  0  0
  3 17  1  0  0  0  0
  4 18  1  0  0  0  0
  9 19  1  0  0  0  0
  9 20  1  0  0  0  0
 10 21  1  0  0  0  0
 10 22  1  0  0  0  0
 13 23  1  0  0  0  0
M  END
> <FRED Chemgauss4 score>
-6.537459

$$$$
MOL0082_1
  -OEChem-06022418023D

 25 27  0     1  0  0  0  0  0999 V2000
    1.9301   15.5419   -3.2792 C   0  0  0  0  0  0  0  0  0  0  0  0
    2.3388   14.1638   -1.5287 C   0  0  0  0  0  0  0  0  0  0  0  0
    0.6598   15.0142   -3.4481 C   0  0  0  0  0  0  0  0  0  0  0  0
    0.2798   14.0275   -2.5351 C   0  0  0  0  0  0  0  0  0  0  0  0
   -4.1823   12.9300   -2.6451 C   0  0  0  0  0  0  0  0  0  0  0  0
   -4.5497   13.7461   -3.8529 C   0  0  0  0  0  0  0  0  0  0  0  0
   -1.3979   14.6989   -4.7079 C   0  0  0  0  0  0  0  0  0  0  0  0
   -3.1498   13.2193   -3.6993 C   0  0  0  0  0  0  0  0  0  0  0  0
   -2.0145   14.1612   -3.4094 C   0  0  1  0  0  0  0  0  0  0  0  0
    2.7978   15.1372   -2.3312 N   0  0  0  0  0  0  0  0  0  0  0  0
    1.1254   13.5817   -1.5754 N   0  0  0  0  0  0  0  0  0  0  0  0
   -0.1989   15.4674   -4.4322 N   0  0  0  0  0  0  0  0  0  0  0  0
   -1.0000   13.4839   -2.6139 N   0  0  0  0  0  0  0  0  0  0  0  0
    2.3031   16.3284   -3.9286 H   0  0  0  0  0  0  0  0  0  0  0  0
    3.0146   13.8099   -0.7599 H   0  0  0  0  0  0  0  0  0  0  0  0
   -4.1104   13.4426   -1.6939 H   0  0  0  0  0  0  0  0  0  0  0  0
   -4.5690   11.9202   -2.5825 H   0  0  0  0  0  0  0  0  0  0  0  0
   -5.1826   13.2836   -4.6004 H   0  0  0  0  0  0  0  0  0  0  0  0
   -4.7241   14.8055   -3.7106 H   0  0  0  0  0  0  0  0  0  0  0  0
   -1.1490   13.8741   -5.3882 H   0  0  0  0  0  0  0  0  0  0  0  0
   -2.1202   15.3328   -5.2349 H   0  0  0  0  0  0  0  0  0  0  0  0
   -2.8464   12.4024   -4.3429 H   0  0  0  0  0  0  0  0  0  0  0  0
   -2.4100   15.0031   -2.8261 H   0  0  0  0  0  0  0  0  0  0  0  0
    0.1366   16.1308   -5.1200 H   0  0  0  0  0  0  0  0  0  0  0  0
   -1.2670   12.7962   -1.9199 H   0  0  0  0  0  0  0  0  0  0  0  0
  1  3  1  0  0  0  0
  1 10  2  0  0  0  0
  2 10  1  0  0  0  0
  2 11  2  0  0  0  0
  3  4  2  0  0  0  0
  3 12  1  0  0  0  0
  4 11  1  0  0  0  0
  4 13  1  0  0  0  0
  5  6  1  0  0  0  0
  5  8  1  0  0  0  0
  6  8  1  0  0  0  0
  7  9  1  0  0  0  0
  7 12  1  0  0  0  0
  8  9  1  0  0  0  0
  9 13  1  0  0  0  0
  1 14  1  0  0  0  0
  2 15  1  0  0  0  0
  5 16  1  0  0  0  0
  5 17  1  0  0  0  0
  6 18  1  0  0  0  0
  6 19  1  0  0  0  0
  7 20  1  0  0  0  0
  7 21  1  0  0  0  0
  8 22  1  0  0  0  0
  9 23  1  0  0  0  0
 12 24  1  0  0  0  0
 13 25  1  0  0  0  0
M  END
> <FRED Chemgauss4 score>
-6.533733

$$$$
MOL0109_2
  -OEChem-06022418023D

 22 23  0     1  0  0  0  0  0999 V2000
    1.1267   12.3005   -2.2658 C   0  0  0  0  0  0  0  0  0  0  0  0
   -1.0201   11.8253   -2.8538 C   0  0  0  0  0  0  0  0  0  0  0  0
    1.1067   13.4732   -3.0011 C   0  0  0  0  0  0  0  0  0  0  0  0
   -0.0855   13.7310   -3.6757 C   0  0  0  0  0  0  0  0  0  0  0  0
   -0.1512   14.9434   -4.5637 C   0  0  0  0  0  0  0  0  0  0  0  0
    0.4674   16.1687   -3.8903 C   0  0  0  0  0  0  0  0  0  0  0  0
    1.7332   15.8835   -3.0640 C   0  0  0  0  0  0  0  0  0  0  0  0
    2.2530   14.4373   -3.1689 C   0  0  1  0  0  0  0  0  0  0  0  0
    0.0765   11.4576   -2.1660 N   0  0  0  0  0  0  0  0  0  0  0  0
   -1.1660   12.9225   -3.6190 N   0  0  0  0  0  0  0  0  0  0  0  0
    3.3461   14.2432   -2.2127 N   0  0  0  0  0  0  0  0  0  0  0  0
    2.0080   11.9923   -1.7161 H   0  0  0  0  0  0  0  0  0  0  0  0
   -1.8766   11.1658   -2.7857 H   0  0  0  0  0  0  0  0  0  0  0  0
    0.3974   14.7198   -5.4771 H   0  0  0  0  0  0  0  0  0  0  0  0
   -1.1846   15.1572   -4.8254 H   0  0  0  0  0  0  0  0  0  0  0  0
    0.7019   16.9316   -4.6692 H   0  0  0  0  0  0  0  0  0  0  0  0
   -0.2956   16.6659   -3.2455 H   0  0  0  0  0  0  0  0  0  0  0  0
    2.5319   16.5822   -3.3924 H   0  0  0  0  0  0  0  0  0  0  0  0
    1.5477   16.1505   -2.0026 H   0  0  0  0  0  0  0  0  0  0  0  0
    2.6631   14.3279   -4.1813 H   0  0  0  0  0  0  0  0  0  0  0  0
    3.4336   15.0725   -1.6783 H   0  0  0  0  0  0  0  0  0  0  0  0
    3.1122   13.4721   -1.6367 H   0  0  0  0  0  0  0  0  0  0  0  0
  1  3  1  0  0  0  0
  1  9  2  0  0  0  0
  2  9  1  0  0  0  0
  2 10  2  0  0  0  0
  3  4  2  0  0  0  0
  3  8  1  0  0  0  0
  4  5  1  0  0  0  0
  4 10  1  0  0  0  0
  5  6  1  0  0  0  0
  6  7  1  0  0  0  0
  7  8  1  0  0  0  0
  8 11  1  0  0  0  0
  1 12  1  0  0  0  0
  2 13  1  0  0  0  0
  5 14  1  0  0  0  0
  5 15  1  0  0  0  0
  6 16  1  0  0  0  0
  6 17  1  0  0  0  0
  7 18  1  0  0  0  0
  7 19  1  0  0  0  0
  8 20  1  0  0  0  0
 11 21  1  0  0  0  0
 11 22  1  0  0  0  0
M  END
> <FRED Chemgauss4 score>
-6.521826

$$$$
MOL0190_1
  -OEChem-06022418023D

 15 16  0     0  0  0  0  0  0999 V2000
    1.9307   15.4028   -3.1576 C   0  0  0  0  0  0  0  0  0  0  0  0
    2.5034   13.9198   -1.5073 C   0  0  0  0  0  0  0  0  0  0  0  0
    0.6598   14.8974   -3.1562 C   0  0  0  0  0  0  0  0  0  0  0  0
    0.3946   13.8825   -2.2723 C   0  0  0  0  0  0  0  0  0  0  0  0
   -0.5498   15.2412   -3.9227 C   0  0  0  0  0  0  0  0  0  0  0  0
   -1.0333   13.4858   -2.3976 C   0  0  0  0  0  0  0  0  0  0  0  0
    2.8884   14.9242   -2.3335 N   0  0  0  0  0  0  0  0  0  0  0  0
    1.2814   13.3537   -1.4194 N   0  0  0  0  0  0  0  0  0  0  0  0
   -1.5080   14.2154   -3.5563 O   0  0  0  0  0  0  0  0  0  0  0  0
    2.2321   16.2082   -3.8162 H   0  0  0  0  0  0  0  0  0  0  0  0
    3.2646   13.5291   -0.8426 H   0  0  0  0  0  0  0  0  0  0  0  0
   -0.9558   16.2149   -3.6338 H   0  0  0  0  0  0  0  0  0  0  0  0
   -0.3913   15.1950   -5.0033 H   0  0  0  0  0  0  0  0  0  0  0  0
   -1.1525   12.4154   -2.5819 H   0  0  0  0  0  0  0  0  0  0  0  0
   -1.6149   13.7959   -1.5250 H   0  0  0  0  0  0  0  0  0  0  0  0
  1  3  1  0  0  0  0
  1  7  2  0  0  0  0
  2  7  1  0  0  0  0
  2  8  2  0  0  0  0
  3  4  2  0  0  0  0
  3  5  1  0  0  0  0
  4  6  1  0  0  0  0
  4  8  1  0  0  0  0
  5  9  1  0  0  0  0
  6  9  1  0  0  0  0
  1 10  1  0  0  0  0
  2 11  1  0  0  0  0
  5 12  1  0  0  0  0
  5 13  1  0  0  0  0
  6 14  1  0  0  0  0
  6 15  1  0  0  0  0
M  END
> <FRED Chemgauss4 score>
-6.514415

$$$$
MOL0101_1
  -OEChem-06022418023D

 22 23  0     0  0  0  0  0  0999 V2000
    2.1230   14.8487   -3.5419 C   0  0  0  0  0  0  0  0  0  0  0  0
    2.6126   14.0255   -1.4683 C   0  0  0  0  0  0  0  0  0  0  0  0
    1.1610   13.8829   -3.6855 C   0  0  0  0  0  0  0  0  0  0  0  0
    0.9758   12.9938   -2.6425 C   0  0  0  0  0  0  0  0  0  0  0  0
    0.2314   13.5992   -4.8139 C   0  0  0  0  0  0  0  0  0  0  0  0
   -0.5661   12.3671   -4.2778 C   0  0  0  0  0  0  0  0  0  0  0  0
   -0.3555   11.1423   -5.1724 C   0  0  0  0  0  0  0  0  0  0  0  0
   -2.0591   12.6857   -4.1596 C   0  0  0  0  0  0  0  0  0  0  0  0
    2.8749   14.9446   -2.4268 N   0  0  0  0  0  0  0  0  0  0  0  0
    1.6925   13.0376   -1.5071 N   0  0  0  0  0  0  0  0  0  0  0  0
   -0.0361   12.0774   -2.9453 N   0  0  0  0  0  0  0  0  0  0  0  0
    2.3260   15.5801   -4.3146 H   0  0  0  0  0  0  0  0  0  0  0  0
    3.2098   14.0906   -0.5665 H   0  0  0  0  0  0  0  0  0  0  0  0
   -0.4148   14.4640   -4.9963 H   0  0  0  0  0  0  0  0  0  0  0  0
    0.7991   13.3636   -5.7200 H   0  0  0  0  0  0  0  0  0  0  0  0
   -0.9201   10.3007   -4.7780 H   0  0  0  0  0  0  0  0  0  0  0  0
    0.7010   10.8863   -5.1981 H   0  0  0  0  0  0  0  0  0  0  0  0
   -0.6969   11.3637   -6.1809 H   0  0  0  0  0  0  0  0  0  0  0  0
   -2.5901   11.8136   -3.7852 H   0  0  0  0  0  0  0  0  0  0  0  0
   -2.4535   12.9549   -5.1366 H   0  0  0  0  0  0  0  0  0  0  0  0
   -2.2020   13.5163   -3.4724 H   0  0  0  0  0  0  0  0  0  0  0  0
   -0.3423   11.3369   -2.3332 H   0  0  0  0  0  0  0  0  0  0  0  0
  1  3  1  0  0  0  0
  1  9  2  0  0  0  0
  2  9  1  0  0  0  0
  2 10  2  0  0  0  0
  3  4  2  0  0  0  0
  3  5  1  0  0  0  0
  4 10  1  0  0  0  0
  4 11  1  0  0  0  0
  5  6  1  0  0  0  0
  6  7  1  0  0  0  0
  6  8  1  0  0  0  0
  6 11  1  0  0  0  0
  1 12  1  0  0  0  0
  2 13  1  0  0  0  0
  5 14  1  0  0  0  0
  5 15  1  0  0  0  0
  7 16  1  0  0  0  0
  7 17  1  0  0  0  0
  7 18  1  0  0  0  0
  8 19  1  0  0  0  0
  8 20  1  0  0  0  0
  8 21  1  0  0  0  0
 11 22  1  0  0  0  0
M  END
> <FRED Chemgauss4 score>
-6.490006

$$$$
MOL0001_1
  -OEChem-06022418023D

 19 20  0     1  0  0  0  0  0999 V2000
   -1.5138   14.8778   -0.7297 C   0  0  0  0  0  0  0  0  0  0  0  0
   -0.2841   14.4935    1.1578 C   0  0  0  0  0  0  0  0  0  0  0  0
   -2.6254   15.0815    0.0470 C   0  0  0  0  0  0  0  0  0  0  0  0
   -2.4782   14.9776    1.4219 C   0  0  0  0  0  0  0  0  0  0  0  0
   -4.7398   15.2612    1.0567 C   0  0  0  0  0  0  0  0  0  0  0  0
   -4.0264   15.4606   -0.3064 C   0  0  2  0  0  0  0  0  0  0  0  0
   -4.6423   14.6231   -1.4160 C   0  0  0  0  0  0  0  0  0  0  0  0
   -0.3144   14.5731   -0.1933 N   0  0  0  0  0  0  0  0  0  0  0  0
   -1.3098   14.6831    2.0156 N   0  0  0  0  0  0  0  0  0  0  0  0
   -3.6981   15.2224    2.0696 N   0  0  0  0  0  0  0  0  0  0  0  0
   -1.5405   14.9566   -1.8098 H   0  0  0  0  0  0  0  0  0  0  0  0
    0.6741   14.2504    1.6013 H   0  0  0  0  0  0  0  0  0  0  0  0
   -5.4473   16.0737    1.2528 H   0  0  0  0  0  0  0  0  0  0  0  0
   -5.2982   14.3174    1.0818 H   0  0  0  0  0  0  0  0  0  0  0  0
   -4.0459   16.5231   -0.5786 H   0  0  0  0  0  0  0  0  0  0  0  0
   -4.6226   13.5664   -1.1445 H   0  0  0  0  0  0  0  0  0  0  0  0
   -4.0832   14.7579   -2.3431 H   0  0  0  0  0  0  0  0  0  0  0  0
   -5.6778   14.9236   -1.5831 H   0  0  0  0  0  0  0  0  0  0  0  0
   -3.8406   15.1295    3.0635 H   0  0  0  0  0  0  0  0  0  0  0  0
  1  3  1  0  0  0  0
  1  8  2  0  0  0  0
  2  8  1  0  0  0  0
  2  9  2  0  0  0  0
  3  4  2  0  0  0  0
  3  6  1  0  0  0  0
  4  9  1  0  0  0  0
  4 10  1  0  0  0  0
  5  6  1  0  0  0  0
  5 10  1  0  0  0  0
  6  7  1  0  0  0  0
  1 11  1  0  0  0  0
  2 12  1  0  0  0  0
  5 13  1  0  0  0  0
  5 14  1  0  0  0  0
  6 15  1  0  0  0  0
  7 16  1  0  0  0  0
  7 17  1  0  0  0  0
  7 18  1  0  0  0  0
 10 19  1  0  0  0  0
M  END
> <FRED Chemgauss4 score>
-6.484440

$$$$
MOL0035_1
  -OEChem-06022418023D

 19 20  0     1  0  0  0  0  0999 V2000
    1.8346   15.5873   -3.3493 C   0  0  0  0  0  0  0  0  0  0  0  0
    2.3100   14.3078   -1.5166 C   0  0  0  0  0  0  0  0  0  0  0  0
    0.6220   14.9572   -3.4633 C   0  0  0  0  0  0  0  0  0  0  0  0
    0.3187   13.9713   -2.5364 C   0  0  0  0  0  0  0  0  0  0  0  0
   -1.5921   14.2463   -3.8018 C   0  0  0  0  0  0  0  0  0  0  0  0
   -0.4751   15.0920   -4.4681 C   0  0  1  0  0  0  0  0  0  0  0  0
   -0.9085   16.5246   -4.7359 C   0  0  0  0  0  0  0  0  0  0  0  0
    2.7081   15.2818   -2.3681 N   0  0  0  0  0  0  0  0  0  0  0  0
    1.1490   13.6181   -1.5413 N   0  0  0  0  0  0  0  0  0  0  0  0
   -0.9448   13.4203   -2.7961 N   0  0  0  0  0  0  0  0  0  0  0  0
    2.1544   16.3562   -4.0421 H   0  0  0  0  0  0  0  0  0  0  0  0
    3.0037   14.0518   -0.7245 H   0  0  0  0  0  0  0  0  0  0  0  0
   -2.3396   14.8837   -3.3138 H   0  0  0  0  0  0  0  0  0  0  0  0
   -2.1116   13.6281   -4.5416 H   0  0  0  0  0  0  0  0  0  0  0  0
   -0.1587   14.6111   -5.4020 H   0  0  0  0  0  0  0  0  0  0  0  0
   -1.2231   17.0021   -3.8066 H   0  0  0  0  0  0  0  0  0  0  0  0
   -1.7431   16.5397   -5.4385 H   0  0  0  0  0  0  0  0  0  0  0  0
   -0.0808   17.0944   -5.1610 H   0  0  0  0  0  0  0  0  0  0  0  0
   -1.3980   12.7394   -2.2067 H   0  0  0  0  0  0  0  0  0  0  0  0
  1  3  1  0  0  0  0
  1  8  2  0  0  0  0
  2  8  1  0  0  0  0
  2  9  2  0  0  0  0
  3  4  2  0  0  0  0
  3  6  1  0  0  0  0
  4  9  1  0  0  0  0
  4 10  1  0  0  0  0
  5  6  1  0  0  0  0
  5 10  1  0  0  0  0
  6  7  1  0  0  0  0
  1 11  1  0  0  0  0
  2 12  1  0  0  0  0
  5 13  1  0  0  0  0
  5 14  1  0  0  0  0
  6 15  1  0  0  0  0
  7 16  1  0  0  0  0
  7 17  1  0  0  0  0
  7 18  1  0  0  0  0
 10 19  1  0  0  0  0
M  END
> <FRED Chemgauss4 score>
-6.475531

$$$$
MOL0081_1
  -OEChem-06022418023D

 14 15  0     0  0  0  0  0  0999 V2000
   -0.7480   13.3953   -2.7033 C   0  0  0  0  0  0  0  0  0  0  0  0
    2.0055   15.6169   -3.2481 C   0  0  0  0  0  0  0  0  0  0  0  0
   -1.2812   14.1958   -3.6901 C   0  0  0  0  0  0  0  0  0  0  0  0
    2.6337   14.1271   -1.5997 C   0  0  0  0  0  0  0  0  0  0  0  0
    0.5617   13.8672   -2.4440 C   0  0  0  0  0  0  0  0  0  0  0  0
    0.7930   14.9508   -3.2861 C   0  0  0  0  0  0  0  0  0  0  0  0
    2.9454   15.1871   -2.3784 N   0  0  0  0  0  0  0  0  0  0  0  0
    1.4883   13.4162   -1.5630 N   0  0  0  0  0  0  0  0  0  0  0  0
   -0.3407   15.1334   -4.0358 N   0  0  0  0  0  0  0  0  0  0  0  0
   -1.2513   12.5662   -2.2261 H   0  0  0  0  0  0  0  0  0  0  0  0
    2.2493   16.4640   -3.8743 H   0  0  0  0  0  0  0  0  0  0  0  0
   -2.2458   14.1822   -4.1780 H   0  0  0  0  0  0  0  0  0  0  0  0
    3.4093   13.8068   -0.9125 H   0  0  0  0  0  0  0  0  0  0  0  0
   -0.4670   15.8506   -4.7368 H   0  0  0  0  0  0  0  0  0  0  0  0
  1  3  2  0  0  0  0
  1  5  1  0  0  0  0
  2  6  1  0  0  0  0
  2  7  2  0  0  0  0
  3  9  1  0  0  0  0
  4  7  1  0  0  0  0
  4  8  2  0  0  0  0
  5  6  2  0  0  0  0
  5  8  1  0  0  0  0
  6  9  1  0  0  0  0
  1 10  1  0  0  0  0
  2 11  1  0  0  0  0
  3 12  1  0  0  0  0
  4 13  1  0  0  0  0
  9 14  1  0  0  0  0
M  END
> <FRED Chemgauss4 score>
-6.473088

$$$$
MOL0029_1
  -OEChem-06022418023D

 19 20  0     1  0  0  0  0  0999 V2000
    1.7271   15.1574   -3.1198 C   0  0  0  0  0  0  0  0  0  0  0  0
    2.2006   13.9607   -1.2322 C   0  0  0  0  0  0  0  0  0  0  0  0
    0.4990   14.5522   -3.1811 C   0  0  0  0  0  0  0  0  0  0  0  0
    0.1826   13.6280   -2.2011 C   0  0  0  0  0  0  0  0  0  0  0  0
   -0.6084   14.6962   -4.1649 C   0  0  0  0  0  0  0  0  0  0  0  0
   -1.6972   13.7676   -3.5617 C   0  0  2  0  0  0  0  0  0  0  0  0
   -2.9322   14.5443   -3.1199 C   0  0  0  0  0  0  0  0  0  0  0  0
    2.6105   14.8775   -2.1401 N   0  0  0  0  0  0  0  0  0  0  0  0
    1.0199   13.3052   -1.2014 N   0  0  0  0  0  0  0  0  0  0  0  0
   -1.0984   13.1052   -2.4092 N   0  0  0  0  0  0  0  0  0  0  0  0
    2.0482   15.8868   -3.8534 H   0  0  0  0  0  0  0  0  0  0  0  0
    2.9010   13.7259   -0.4395 H   0  0  0  0  0  0  0  0  0  0  0  0
   -0.9368   15.7371   -4.2427 H   0  0  0  0  0  0  0  0  0  0  0  0
   -0.2885   14.3292   -5.1457 H   0  0  0  0  0  0  0  0  0  0  0  0
   -1.9957   13.0176   -4.3037 H   0  0  0  0  0  0  0  0  0  0  0  0
   -2.6546   15.2956   -2.3810 H   0  0  0  0  0  0  0  0  0  0  0  0
   -3.6605   13.8648   -2.6778 H   0  0  0  0  0  0  0  0  0  0  0  0
   -3.3857   15.0410   -3.9774 H   0  0  0  0  0  0  0  0  0  0  0  0
   -1.5488   12.4307   -1.8105 H   0  0  0  0  0  0  0  0  0  0  0  0
  1  3  1  0  0  0  0
  1  8  2  0  0  0  0
  2  8  1  0  0  0  0
  2  9  2  0  0  0  0
  3  4  2  0  0  0  0
  3  5  1  0  0  0  0
  4  9  1  0  0  0  0
  4 10  1  0  0  0  0
  5  6  1  0  0  0  0
  6  7  1  0  0  0  0
  6 10  1  0  0  0  0
  1 11  1  0  0  0  0
  2 12  1  0  0  0  0
  5 13  1  0  0  0  0
  5 14  1  0  0  0  0
  6 15  1  0  0  0  0
  7 16  1  0  0  0  0
  7 17  1  0  0  0  0
  7 18  1  0  0  0  0
 10 19  1  0  0  0  0
M  END
> <FRED Chemgauss4 score>
-6.470286

$$$$
MOL0208_1
  -OEChem-06022418023D

 21 22  0     1  0  0  0  0  0999 V2000
   -0.6885   14.4378   -0.6922 C   0  0  0  0  0  0  0  0  0  0  0  0
    0.3051   14.9439    1.2793 C   0  0  0  0  0  0  0  0  0  0  0  0
   -1.9624   14.6549   -0.1762 C   0  0  0  0  0  0  0  0  0  0  0  0
   -1.9863   15.0624    1.1665 C   0  0  0  0  0  0  0  0  0  0  0  0
   -4.3872   15.4914    0.9665 C   0  0  0  0  0  0  0  0  0  0  0  0
   -4.3923   14.4687   -0.1622 C   0  0  0  0  0  0  0  0  0  0  0  0
   -3.1203   14.0027   -2.2686 C   0  0  0  0  0  0  0  0  0  0  0  0
    0.4609   14.5712    0.0025 N   0  0  0  0  0  0  0  0  0  0  0  0
   -0.8565   15.1967    1.9053 N   0  0  0  0  0  0  0  0  0  0  0  0
   -3.2037   15.3351    1.7809 N   0  0  0  0  0  0  0  0  0  0  0  0
   -3.1339   14.5060   -0.9048 N   0  0  2  0  0  0  0  0  0  0  0  0
   -0.5332   14.1288   -1.7214 H   0  0  0  0  0  0  0  0  0  0  0  0
    1.2071   15.0549    1.8679 H   0  0  0  0  0  0  0  0  0  0  0  0
   -4.4172   16.5078    0.5555 H   0  0  0  0  0  0  0  0  0  0  0  0
   -5.2791   15.3672    1.5897 H   0  0  0  0  0  0  0  0  0  0  0  0
   -4.5470   13.4598    0.2413 H   0  0  0  0  0  0  0  0  0  0  0  0
   -5.2364   14.6822   -0.8284 H   0  0  0  0  0  0  0  0  0  0  0  0
   -4.1490   13.9647   -2.6562 H   0  0  0  0  0  0  0  0  0  0  0  0
   -2.5152   14.6702   -2.8996 H   0  0  0  0  0  0  0  0  0  0  0  0
   -2.6860   12.9921   -2.2820 H   0  0  0  0  0  0  0  0  0  0  0  0
   -3.2010   15.6470    2.7440 H   0  0  0  0  0  0  0  0  0  0  0  0
  1  3  1  0  0  0  0
  1  8  2  0  0  0  0
  2  8  1  0  0  0  0
  2  9  2  0  0  0  0
  3  4  2  0  0  0  0
  3 11  1  0  0  0  0
  4  9  1  0  0  0  0
  4 10  1  0  0  0  0
  5  6  1  0  0  0  0
  5 10  1  0  0  0  0
  6 11  1  0  0  0  0
  7 11  1  0  0  0  0
  1 12  1  0  0  0  0
  2 13  1  0  0  0  0
  5 14  1  0  0  0  0
  5 15  1  0  0  0  0
  6 16  1  0  0  0  0
  6 17  1  0  0  0  0
  7 18  1  0  0  0  0
  7 19  1  0  0  0  0
  7 20  1  0  0  0  0
 10 21  1  0  0  0  0
M  END
> <FRED Chemgauss4 score>
-6.453414

$$$$
MOL0059_1
  -OEChem-06022418023D

 21 22  0     0  0  0  0  0  0999 V2000
   -2.7251   15.1483    1.5067 C   0  0  0  0  0  0  0  0  0  0  0  0
   -0.4812   15.0124    1.0904 C   0  0  0  0  0  0  0  0  0  0  0  0
   -2.9806   14.9044    0.1814 C   0  0  0  0  0  0  0  0  0  0  0  0
   -1.8914   14.7200   -0.6474 C   0  0  0  0  0  0  0  0  0  0  0  0
   -1.4962   14.2575   -3.0373 C   0  0  0  0  0  0  0  0  0  0  0  0
   -4.2779   14.8015   -0.5385 C   0  0  0  0  0  0  0  0  0  0  0  0
   -3.8143   14.5178   -1.9744 C   0  0  0  0  0  0  0  0  0  0  0  0
   -2.1965   14.0261   -4.3537 C   0  0  0  0  0  0  0  0  0  0  0  0
   -1.4686   15.2085    1.9957 N   0  0  0  0  0  0  0  0  0  0  0  0
   -0.6161   14.7666   -0.2298 N   0  0  0  0  0  0  0  0  0  0  0  0
   -2.3381   14.4826   -1.9620 N   0  0  0  0  0  0  0  0  0  0  0  0
   -0.2658   14.2366   -2.9828 O   0  0  0  0  0  0  0  0  0  0  0  0
   -3.5196   15.3035    2.2269 H   0  0  0  0  0  0  0  0  0  0  0  0
    0.5325   15.0574    1.4702 H   0  0  0  0  0  0  0  0  0  0  0  0
   -4.8812   13.9769   -0.1472 H   0  0  0  0  0  0  0  0  0  0  0  0
   -4.8358   15.7406   -0.4809 H   0  0  0  0  0  0  0  0  0  0  0  0
   -4.1919   13.5554   -2.3371 H   0  0  0  0  0  0  0  0  0  0  0  0
   -4.1478   15.2981   -2.6673 H   0  0  0  0  0  0  0  0  0  0  0  0
   -2.3350   14.9789   -4.8532 H   0  0  0  0  0  0  0  0  0  0  0  0
   -3.1588   13.5613   -4.1665 H   0  0  0  0  0  0  0  0  0  0  0  0
   -1.5887   13.3696   -4.9675 H   0  0  0  0  0  0  0  0  0  0  0  0
  1  3  1  0  0  0  0
  1  9  2  0  0  0  0
  2  9  1  0  0  0  0
  2 10  2  0  0  0  0
  3  4  2  0  0  0  0
  3  6  1  0  0  0  0
  4 10  1  0  0  0  0
  4 11  1  0  0  0  0
  5  8  1  0  0  0  0
  5 11  1  0  0  0  0
  5 12  2  0  0  0  0
  6  7  1  0  0  0  0
  7 11  1  0  0  0  0
  1 13  1  0  0  0  0
  2 14  1  0  0  0  0
  6 15  1  0  0  0  0
  6 16  1  0  0  0  0
  7 17  1  0  0  0  0
  7 18  1  0  0  0  0
  8 19  1  0  0  0  0
  8 20  1  0  0  0  0
  8 21  1  0  0  0  0
M  END
> <FRED Chemgauss4 score>
-6.448572

$$$$
MOL0071_1
  -OEChem-06022418023D

 15 16  0     0  0  0  0  0  0999 V2000
   -0.7146   13.4902   -3.3866 C   0  0  0  0  0  0  0  0  0  0  0  0
   -0.9216   12.2064   -2.8977 C   0  0  0  0  0  0  0  0  0  0  0  0
    1.1730   12.1216   -1.9825 C   0  0  0  0  0  0  0  0  0  0  0  0
    2.6842   14.0554   -2.2165 C   0  0  0  0  0  0  0  0  0  0  0  0
    1.9574   15.8818   -3.3399 C   0  0  0  0  0  0  0  0  0  0  0  0
    1.4700   13.4100   -2.4357 C   0  0  0  0  0  0  0  0  0  0  0  0
    0.5029   14.1185   -3.1584 C   0  0  0  0  0  0  0  0  0  0  0  0
   -0.0059   11.5036   -2.1992 N   0  0  0  0  0  0  0  0  0  0  0  0
    2.9574   15.2968   -2.6588 N   0  0  0  0  0  0  0  0  0  0  0  0
    0.7433   15.3607   -3.6147 N   0  0  0  0  0  0  0  0  0  0  0  0
   -1.5030   13.9902   -3.9417 H   0  0  0  0  0  0  0  0  0  0  0  0
   -1.8650   11.6968   -3.0652 H   0  0  0  0  0  0  0  0  0  0  0  0
    1.8957   11.5392   -1.4189 H   0  0  0  0  0  0  0  0  0  0  0  0
    3.4896   13.5791   -1.6658 H   0  0  0  0  0  0  0  0  0  0  0  0
    2.1452   16.8826   -3.7093 H   0  0  0  0  0  0  0  0  0  0  0  0
  1  2  1  0  0  0  0
  1  7  2  0  0  0  0
  2  8  2  0  0  0  0
  3  6  2  0  0  0  0
  3  8  1  0  0  0  0
  4  6  1  0  0  0  0
  4  9  2  0  0  0  0
  5  9  1  0  0  0  0
  5 10  2  0  0  0  0
  6  7  1  0  0  0  0
  7 10  1  0  0  0  0
  1 11  1  0  0  0  0
  2 12  1  0  0  0  0
  3 13  1  0  0  0  0
  4 14  1  0  0  0  0
  5 15  1  0  0  0  0
M  END
> <FRED Chemgauss4 score>
-6.414669

$$$$
MOL0162_1
  -OEChem-06022418023D

 25 26  0     1  0  0  0  0  0999 V2000
   -2.5878   15.0007    1.0794 C   0  0  0  0  0  0  0  0  0  0  0  0
   -0.3492   14.6745    0.9090 C   0  0  0  0  0  0  0  0  0  0  0  0
   -2.7334   14.9572   -0.2978 C   0  0  0  0  0  0  0  0  0  0  0  0
   -1.5693   14.7267   -1.0262 C   0  0  0  0  0  0  0  0  0  0  0  0
   -4.0736   15.0862   -0.9573 C   0  0  0  0  0  0  0  0  0  0  0  0
   -3.0626   14.4966   -3.0581 C   0  0  0  0  0  0  0  0  0  0  0  0
   -1.6255   14.7029   -2.5424 C   0  0  2  0  0  0  0  0  0  0  0  0
   -0.7264   13.6670   -4.6321 C   0  0  0  0  0  0  0  0  0  0  0  0
   -0.7077   13.6336   -3.1404 C   0  0  0  0  0  0  0  0  0  0  0  0
   -1.4075   14.8649    1.7158 N   0  0  0  0  0  0  0  0  0  0  0  0
   -0.3576   14.6025   -0.4357 N   0  0  0  0  0  0  0  0  0  0  0  0
   -3.9844   15.4123   -2.3845 N   0  0  0  0  0  0  0  0  0  0  0  0
   -3.4429   15.1508    1.7311 H   0  0  0  0  0  0  0  0  0  0  0  0
    0.6146   14.5688    1.3917 H   0  0  0  0  0  0  0  0  0  0  0  0
   -4.6260   14.1478   -0.8254 H   0  0  0  0  0  0  0  0  0  0  0  0
   -4.6459   15.8813   -0.4662 H   0  0  0  0  0  0  0  0  0  0  0  0
   -3.0918   14.6937   -4.1361 H   0  0  0  0  0  0  0  0  0  0  0  0
   -3.3919   13.4586   -2.9158 H   0  0  0  0  0  0  0  0  0  0  0  0
   -1.2753   15.6868   -2.8837 H   0  0  0  0  0  0  0  0  0  0  0  0
   -1.7497   13.5006   -4.9887 H   0  0  0  0  0  0  0  0  0  0  0  0
   -0.0892   12.8803   -5.0499 H   0  0  0  0  0  0  0  0  0  0  0  0
   -0.3903   14.6398   -5.0064 H   0  0  0  0  0  0  0  0  0  0  0  0
    0.3097   13.7989   -2.7799 H   0  0  0  0  0  0  0  0  0  0  0  0
   -1.0324   12.6521   -2.7890 H   0  0  0  0  0  0  0  0  0  0  0  0
   -4.9111   15.3319   -2.8023 H   0  0  0  0  0  0  0  0  0  0  0  0
  1  3  1  0  0  0  0
  1 10  2  0  0  0  0
  2 10  1  0  0  0  0
  2 11  2  0  0  0  0
  3  4  2  0  0  0  0
  3  5  1  0  0  0  0
  4  7  1  0  0  0  0
  4 11  1  0  0  0  0
  5 12  1  0  0  0  0
  6  7  1  0  0  0  0
  6 12  1  0  0  0  0
  7  9  1  0  0  0  0
  8  9  1  0  0  0  0
  1 13  1  0  0  0  0
  2 14  1  0  0  0  0
  5 15  1  0  0  0  0
  5 16  1  0  0  0  0
  6 17  1  0  0  0  0
  6 18  1  0  0  0  0
  7 19  1  0  0  0  0
  8 20  1  0  0  0  0
  8 21  1  0  0  0  0
  8 22  1  0  0  0  0
  9 23  1  0  0  0  0
  9 24  1  0  0  0  0
 12 25  1  0  0  0  0
M  END
> <FRED Chemgauss4 score>
-6.386273

$$$$
MOL0187_1
  -OEChem-06022418023D

 34 36  0     0  0  0  0  0  0999 V2000
   -5.9369   14.2282    1.2053 C   0  0  0  0  0  0  0  0  0  0  0  0
   -6.6370   13.4345   -0.8212 C   0  0  0  0  0  0  0  0  0  0  0  0
   -4.7146   14.5280    0.6600 C   0  0  0  0  0  0  0  0  0  0  0  0
   -4.5328   14.2383   -0.6781 C   0  0  0  0  0  0  0  0  0  0  0  0
   -2.7280   14.4526   -2.3450 C   0  0  0  0  0  0  0  0  0  0  0  0
   -3.5103   15.1333    1.2885 C   0  0  0  0  0  0  0  0  0  0  0  0
    1.2947   14.6958   -3.8988 C   0  0  0  0  0  0  0  0  0  0  0  0
    1.1046   14.1813   -2.4750 C   0  0  0  0  0  0  0  0  0  0  0  0
    0.3321   15.8361   -4.2164 C   0  0  0  0  0  0  0  0  0  0  0  0
   -0.3439   13.7792   -2.2102 C   0  0  0  0  0  0  0  0  0  0  0  0
   -1.1182   15.4381   -3.9554 C   0  0  0  0  0  0  0  0  0  0  0  0
   -2.5315   15.1757    0.1064 C   0  0  0  0  0  0  0  0  0  0  0  0
   -1.3143   14.9186   -2.5295 C   0  0  0  0  0  0  0  0  0  0  0  0
   -6.9300   13.6738    0.4788 N   0  0  0  0  0  0  0  0  0  0  0  0
   -5.4752   13.6872   -1.4599 N   0  0  0  0  0  0  0  0  0  0  0  0
   -3.2303   14.6098   -1.0649 N   0  0  0  0  0  0  0  0  0  0  0  0
   -3.3473   13.9741   -3.2963 O   0  0  0  0  0  0  0  0  0  0  0  0
   -6.1660   14.4229    2.2463 H   0  0  0  0  0  0  0  0  0  0  0  0
   -7.4261   12.9901   -1.4160 H   0  0  0  0  0  0  0  0  0  0  0  0
   -3.7242   16.1394    1.6614 H   0  0  0  0  0  0  0  0  0  0  0  0
   -3.1284   14.5023    2.0963 H   0  0  0  0  0  0  0  0  0  0  0  0
    2.3278   15.0417   -4.0279 H   0  0  0  0  0  0  0  0  0  0  0  0
    1.1416   13.8759   -4.6098 H   0  0  0  0  0  0  0  0  0  0  0  0
    1.7623   13.3206   -2.3090 H   0  0  0  0  0  0  0  0  0  0  0  0
    1.4078   14.9546   -1.7616 H   0  0  0  0  0  0  0  0  0  0  0  0
    0.5864   16.7089   -3.6041 H   0  0  0  0  0  0  0  0  0  0  0  0
    0.4559   16.1401   -5.2624 H   0  0  0  0  0  0  0  0  0  0  0  0
   -0.5856   12.8915   -2.7916 H   0  0  0  0  0  0  0  0  0  0  0  0
   -0.4482   13.5251   -1.1554 H   0  0  0  0  0  0  0  0  0  0  0  0
   -1.7542   16.3139   -4.0950 H   0  0  0  0  0  0  0  0  0  0  0  0
   -1.4246   14.6872   -4.6838 H   0  0  0  0  0  0  0  0  0  0  0  0
   -2.2212   16.2011   -0.1233 H   0  0  0  0  0  0  0  0  0  0  0  0
   -1.6316   14.5838    0.3066 H   0  0  0  0  0  0  0  0  0  0  0  0
   -1.1650   15.7267   -1.8298 H   0  0  0  0  0  0  0  0  0  0  0  0
  1  3  1  0  0  0  0
  1 14  2  0  0  0  0
  2 14  1  0  0  0  0
  2 15  2  0  0  0  0
  3  4  2  0  0  0  0
  3  6  1  0  0  0  0
  4 15  1  0  0  0  0
  4 16  1  0  0  0  0
  5 13  1  0  0  0  0
  5 16  1  0  0  0  0
  5 17  2  0  0  0  0
  6 12  1  0  0  0  0
  7  8  1  0  0  0  0
  7  9  1  0  0  0  0
  8 10  1  0  0  0  0
  9 11  1  0  0  0  0
 10 13  1  0  0  0  0
 11 13  1  0  0  0  0
 12 16  1  0  0  0  0
  1 18  1  0  0  0  0
  2 19  1  0  0  0  0
  6 20  1  0  0  0  0
  6 21  1  0  0  0  0
  7 22  1  0  0  0  0
  7 23  1  0  0  0  0
  8 24  1  0  0  0  0
  8 25  1  0  0  0  0
  9 26  1  0  0  0  0
  9 27  1  0  0  0  0
 10 28  1  0  0  0  0
 10 29  1  0  0  0  0
 11 30  1  0  0  0  0
 11 31  1  0  0  0  0
 12 32  1  0  0  0  0
 12 33  1  0  0  0  0
 13 34  1  0  0  0  0
M  END
> <FRED Chemgauss4 score>
-6.385957

$$$$
MOL0086_1
  -OEChem-06022418023D

 22 23  0     1  0  0  0  0  0999 V2000
    2.2784   14.9545   -3.4923 C   0  0  0  0  0  0  0  0  0  0  0  0
    2.7559   13.8503   -1.5501 C   0  0  0  0  0  0  0  0  0  0  0  0
    1.1547   14.1840   -3.6401 C   0  0  0  0  0  0  0  0  0  0  0  0
    0.8895   13.2325   -2.6711 C   0  0  0  0  0  0  0  0  0  0  0  0
    0.1229   14.1648   -4.7122 C   0  0  0  0  0  0  0  0  0  0  0  0
   -0.8721   13.0967   -4.1820 C   0  0  2  0  0  0  0  0  0  0  0  0
   -3.1771   12.6687   -3.3145 C   0  0  0  0  0  0  0  0  0  0  0  0
   -2.2366   13.6947   -3.8591 C   0  0  0  0  0  0  0  0  0  0  0  0
    3.1085   14.8080   -2.4397 N   0  0  0  0  0  0  0  0  0  0  0  0
    1.6784   13.0373   -1.6014 N   0  0  0  0  0  0  0  0  0  0  0  0
   -0.2856   12.5351   -2.9711 N   0  0  0  0  0  0  0  0  0  0  0  0
    2.5550   15.7159   -4.2114 H   0  0  0  0  0  0  0  0  0  0  0  0
    3.4145   13.7214   -0.6994 H   0  0  0  0  0  0  0  0  0  0  0  0
   -0.3399   15.1488   -4.8349 H   0  0  0  0  0  0  0  0  0  0  0  0
    0.5703   13.8403   -5.6574 H   0  0  0  0  0  0  0  0  0  0  0  0
   -0.9986   12.3060   -4.9308 H   0  0  0  0  0  0  0  0  0  0  0  0
   -3.3035   11.8594   -4.0432 H   0  0  0  0  0  0  0  0  0  0  0  0
   -4.1617   13.1067   -3.1194 H   0  0  0  0  0  0  0  0  0  0  0  0
   -2.7860   12.2340   -2.3885 H   0  0  0  0  0  0  0  0  0  0  0  0
   -2.1131   14.5004   -3.1292 H   0  0  0  0  0  0  0  0  0  0  0  0
   -2.6613   14.1336   -4.7667 H   0  0  0  0  0  0  0  0  0  0  0  0
   -0.6860   11.8090   -2.3979 H   0  0  0  0  0  0  0  0  0  0  0  0
  1  3  1  0  0  0  0
  1  9  2  0  0  0  0
  2  9  1  0  0  0  0
  2 10  2  0  0  0  0
  3  4  2  0  0  0  0
  3  5  1  0  0  0  0
  4 10  1  0  0  0  0
  4 11  1  0  0  0  0
  5  6  1  0  0  0  0
  6  8  1  0  0  0  0
  6 11  1  0  0  0  0
  7  8  1  0  0  0  0
  1 12  1  0  0  0  0
  2 13  1  0  0  0  0
  5 14  1  0  0  0  0
  5 15  1  0  0  0  0
  6 16  1  0  0  0  0
  7 17  1  0  0  0  0
  7 18  1  0  0  0  0
  7 19  1  0  0  0  0
  8 20  1  0  0  0  0
  8 21  1  0  0  0  0
 11 22  1  0  0  0  0
M  END
> <FRED Chemgauss4 score>
-6.381285

$$$$
MOL0028_1
  -OEChem-06022418023D

 21 22  0     0  0  0  0  0  0999 V2000
    1.6186   15.4942   -3.4577 C   0  0  0  0  0  0  0  0  0  0  0  0
    0.3798   14.8833   -3.3650 C   0  0  0  0  0  0  0  0  0  0  0  0
    0.2641   13.8981   -2.3898 C   0  0  0  0  0  0  0  0  0  0  0  0
    2.4469   14.1898   -1.7923 C   0  0  0  0  0  0  0  0  0  0  0  0
   -0.7874   15.3047   -4.2077 C   0  0  0  0  0  0  0  0  0  0  0  0
   -1.0362   13.1555   -2.2299 C   0  0  0  0  0  0  0  0  0  0  0  0
   -2.2129   13.9009   -2.8649 C   0  0  0  0  0  0  0  0  0  0  0  0
    2.6765   15.1676   -2.6878 N   0  0  0  0  0  0  0  0  0  0  0  0
    1.2925   13.5254   -1.5949 N   0  0  0  0  0  0  0  0  0  0  0  0
   -1.8858   14.3282   -4.2284 N   0  0  0  0  0  0  0  0  0  0  0  0
    3.5340   13.8211   -0.9699 N   0  0  0  0  0  0  0  0  0  0  0  0
    1.8034   16.2868   -4.1759 H   0  0  0  0  0  0  0  0  0  0  0  0
   -1.1870   16.2570   -3.8359 H   0  0  0  0  0  0  0  0  0  0  0  0
   -0.4416   15.4801   -5.2353 H   0  0  0  0  0  0  0  0  0  0  0  0
   -0.9495   12.1613   -2.6815 H   0  0  0  0  0  0  0  0  0  0  0  0
   -1.2193   13.0196   -1.1574 H   0  0  0  0  0  0  0  0  0  0  0  0
   -3.1142   13.2705   -2.8758 H   0  0  0  0  0  0  0  0  0  0  0  0
   -2.4591   14.7821   -2.2580 H   0  0  0  0  0  0  0  0  0  0  0  0
   -2.7074   14.7579   -4.6502 H   0  0  0  0  0  0  0  0  0  0  0  0
    4.4221   14.2557   -1.1139 H   0  0  0  0  0  0  0  0  0  0  0  0
    3.4208   13.0673   -0.3239 H   0  0  0  0  0  0  0  0  0  0  0  0
  1  2  1  0  0  0  0
  1  8  2  0  0  0  0
  2  3  2  0  0  0  0
  2  5  1  0  0  0  0
  3  6  1  0  0  0  0
  3  9  1  0  0  0  0
  4  8  1  0  0  0  0
  4  9  2  0  0  0  0
  4 11  1  0  0  0  0
  5 10  1  0  0  0  0
  6  7  1  0  0  0  0
  7 10  1  0  0  0  0
  1 12  1  0  0  0  0
  5 13  1  0  0  0  0
  5 14  1  0  0  0  0
  6 15  1  0  0  0  0
  6 16  1  0  0  0  0
  7 17  1  0  0  0  0
  7 18  1  0  0  0  0
 10 19  1  0  0  0  0
 11 20  1  0  0  0  0
 11 21  1  0  0  0  0
M  END
> <FRED Chemgauss4 score>
-6.362750

$$$$
MOL0012_1
  -OEChem-06022418023D

 20 21  0     0  0  0  0  0  0999 V2000
   -2.8964   14.9410    1.3287 C   0  0  0  0  0  0  0  0  0  0  0  0
   -0.7292   14.8154    0.6688 C   0  0  0  0  0  0  0  0  0  0  0  0
   -3.3414   14.8084    0.0226 C   0  0  0  0  0  0  0  0  0  0  0  0
   -2.3463   14.6978   -0.9443 C   0  0  0  0  0  0  0  0  0  0  0  0
   -4.8020   14.8549   -0.3127 C   0  0  0  0  0  0  0  0  0  0  0  0
   -2.6950   14.5180   -2.3980 C   0  0  0  0  0  0  0  0  0  0  0  0
   -5.1042   14.3515   -1.7244 C   0  0  0  0  0  0  0  0  0  0  0  0
   -4.1235   14.9474   -2.7292 C   0  0  0  0  0  0  0  0  0  0  0  0
   -1.5967   14.9445    1.6873 N   0  0  0  0  0  0  0  0  0  0  0  0
   -1.0276   14.6890   -0.6379 N   0  0  0  0  0  0  0  0  0  0  0  0
   -3.5954   15.0541    2.1517 H   0  0  0  0  0  0  0  0  0  0  0  0
    0.3230   14.8131    0.9258 H   0  0  0  0  0  0  0  0  0  0  0  0
   -5.3723   14.2560    0.4073 H   0  0  0  0  0  0  0  0  0  0  0  0
   -5.1414   15.8942   -0.2211 H   0  0  0  0  0  0  0  0  0  0  0  0
   -1.9930   15.0867   -3.0188 H   0  0  0  0  0  0  0  0  0  0  0  0
   -2.5672   13.4569   -2.6456 H   0  0  0  0  0  0  0  0  0  0  0  0
   -5.0334   13.2567   -1.7510 H   0  0  0  0  0  0  0  0  0  0  0  0
   -6.1327   14.6128   -1.9972 H   0  0  0  0  0  0  0  0  0  0  0  0
   -4.1987   16.0421   -2.7104 H   0  0  0  0  0  0  0  0  0  0  0  0
   -4.3789   14.6243   -3.7445 H   0  0  0  0  0  0  0  0  0  0  0  0
  1  3  1  0  0  0  0
  1  9  2  0  0  0  0
  2  9  1  0  0  0  0
  2 10  2  0  0  0  0
  3  4  2  0  0  0  0
  3  5  1  0  0  0  0
  4  6  1  0  0  0  0
  4 10  1  0  0  0  0
  5  7  1  0  0  0  0
  6  8  1  0  0  0  0
  7  8  1  0  0  0  0
  1 11  1  0  0  0  0
  2 12  1  0  0  0  0
  5 13  1  0  0  0  0
  5 14  1  0  0  0  0
  6 15  1  0  0  0  0
  6 16  1  0  0  0  0
  7 17  1  0  0  0  0
  7 18  1  0  0  0  0
  8 19  1  0  0  0  0
  8 20  1  0  0  0  0
M  END
> <FRED Chemgauss4 score>
-6.334758

$$$$
MOL0056_1
  -OEChem-06022418023D

 24 25  0     1  0  0  0  0  0999 V2000
   -1.0869   14.7005   -0.9232 C   0  0  0  0  0  0  0  0  0  0  0  0
   -0.0596   14.9713    1.0773 C   0  0  0  0  0  0  0  0  0  0  0  0
   -2.3372   14.7014   -0.3253 C   0  0  0  0  0  0  0  0  0  0  0  0
   -2.3537   14.8892    1.0590 C   0  0  0  0  0  0  0  0  0  0  0  0
   -4.7845   15.1658    0.9476 C   0  0  0  0  0  0  0  0  0  0  0  0
   -4.7532   14.3483   -0.3495 C   0  0  1  0  0  0  0  0  0  0  0  0
   -7.2386   14.4656   -0.5900 C   0  0  0  0  0  0  0  0  0  0  0  0
   -5.9238   14.7173   -1.2543 C   0  0  0  0  0  0  0  0  0  0  0  0
    0.0737   14.8295   -0.2509 N   0  0  0  0  0  0  0  0  0  0  0  0
   -1.2104   15.0079    1.7757 N   0  0  0  0  0  0  0  0  0  0  0  0
   -3.5024   14.5740   -1.0608 N   0  0  0  0  0  0  0  0  0  0  0  0
   -3.5769   14.9481    1.7210 N   0  0  0  0  0  0  0  0  0  0  0  0
   -0.9774   14.5845   -1.9975 H   0  0  0  0  0  0  0  0  0  0  0  0
    0.8551   15.0694    1.6489 H   0  0  0  0  0  0  0  0  0  0  0  0
   -4.8816   16.2368    0.7283 H   0  0  0  0  0  0  0  0  0  0  0  0
   -5.6537   14.8819    1.5515 H   0  0  0  0  0  0  0  0  0  0  0  0
   -4.8267   13.2812   -0.1025 H   0  0  0  0  0  0  0  0  0  0  0  0
   -7.3170   13.4070   -0.3157 H   0  0  0  0  0  0  0  0  0  0  0  0
   -8.0682   14.7041   -1.2639 H   0  0  0  0  0  0  0  0  0  0  0  0
   -7.3339   15.0613    0.3240 H   0  0  0  0  0  0  0  0  0  0  0  0
   -5.8487   15.7741   -1.5267 H   0  0  0  0  0  0  0  0  0  0  0  0
   -5.8632   14.1330   -2.1770 H   0  0  0  0  0  0  0  0  0  0  0  0
   -3.4373   14.3358   -2.0435 H   0  0  0  0  0  0  0  0  0  0  0  0
   -3.5772   15.1068    2.7208 H   0  0  0  0  0  0  0  0  0  0  0  0
  1  3  1  0  0  0  0
  1  9  2  0  0  0  0
  2  9  1  0  0  0  0
  2 10  2  0  0  0  0
  3  4  2  0  0  0  0
  3 11  1  0  0  0  0
  4 10  1  0  0  0  0
  4 12  1  0  0  0  0
  5  6  1  0  0  0  0
  5 12  1  0  0  0  0
  6  8  1  0  0  0  0
  6 11  1  0  0  0  0
  7  8  1  0  0  0  0
  1 13  1  0  0  0  0
  2 14  1  0  0  0  0
  5 15  1  0  0  0  0
  5 16  1  0  0  0  0
  6 17  1  0  0  0  0
  7 18  1  0  0  0  0
  7 19  1  0  0  0  0
  7 20  1  0  0  0  0
  8 21  1  0  0  0  0
  8 22  1  0  0  0  0
 11 23  1  0  0  0  0
 12 24  1  0  0  0  0
M  END
> <FRED Chemgauss4 score>
-6.322297

$$$$
MOL0079_1
  -OEChem-06022418023D

 13 14  0     0  0  0  0  0  0999 V2000
   -1.6514   14.6561   -2.2608 C   0  0  0  0  0  0  0  0  0  0  0  0
   -2.6461   15.0427    1.2158 C   0  0  0  0  0  0  0  0  0  0  0  0
   -2.9739   14.7943   -2.6154 C   0  0  0  0  0  0  0  0  0  0  0  0
   -0.3670   14.7522    1.1338 C   0  0  0  0  0  0  0  0  0  0  0  0
   -1.4580   14.7386   -0.8494 C   0  0  0  0  0  0  0  0  0  0  0  0
   -2.6591   14.9397   -0.1703 C   0  0  0  0  0  0  0  0  0  0  0  0
   -1.4740   14.9461    1.8740 N   0  0  0  0  0  0  0  0  0  0  0  0
   -0.2668   14.6389   -0.2012 N   0  0  0  0  0  0  0  0  0  0  0  0
   -3.9849   15.0228   -1.2567 S   0  0  0  0  0  0  0  0  0  0  0  0
   -0.8573   14.5031   -2.9806 H   0  0  0  0  0  0  0  0  0  0  0  0
   -3.5361   15.1984    1.8116 H   0  0  0  0  0  0  0  0  0  0  0  0
   -3.3944   14.7710   -3.6107 H   0  0  0  0  0  0  0  0  0  0  0  0
    0.5631   14.6777    1.6861 H   0  0  0  0  0  0  0  0  0  0  0  0
  1  3  2  0  0  0  0
  1  5  1  0  0  0  0
  2  6  1  0  0  0  0
  2  7  2  0  0  0  0
  3  9  1  0  0  0  0
  4  7  1  0  0  0  0
  4  8  2  0  0  0  0
  5  6  2  0  0  0  0
  5  8  1  0  0  0  0
  6  9  1  0  0  0  0
  1 10  1  0  0  0  0
  2 11  1  0  0  0  0
  3 12  1  0  0  0  0
  4 13  1  0  0  0  0
M  END
> <FRED Chemgauss4 score>
-6.299929

$$$$
MOL0113_1
  -OEChem-06022418023D

 20 21  0     0  0  0  0  0  0999 V2000
    0.9236   13.2006   -3.4236 C   0  0  0  0  0  0  0  0  0  0  0  0
    1.9851   12.6473   -2.7161 C   0  0  0  0  0  0  0  0  0  0  0  0
    0.9976   14.5391   -3.7553 C   0  0  0  0  0  0  0  0  0  0  0  0
    3.0564   13.4701   -2.3770 C   0  0  0  0  0  0  0  0  0  0  0  0
    2.1040   15.2933   -3.3762 C   0  0  0  0  0  0  0  0  0  0  0  0
    0.0076   15.3899   -4.4778 C   0  0  0  0  0  0  0  0  0  0  0  0
    0.7913   16.7079   -4.6513 C   0  0  0  0  0  0  0  0  0  0  0  0
    4.2023   12.8904   -1.6154 C   0  0  0  0  0  0  0  0  0  0  0  0
    3.1442   14.7868   -2.6882 N   0  0  0  0  0  0  0  0  0  0  0  0
    1.9670   16.6204   -3.8042 N   0  0  0  0  0  0  0  0  0  0  0  0
    0.0668   12.5972   -3.7017 H   0  0  0  0  0  0  0  0  0  0  0  0
    1.9683   11.5988   -2.4365 H   0  0  0  0  0  0  0  0  0  0  0  0
   -0.2681   14.9607   -5.4454 H   0  0  0  0  0  0  0  0  0  0  0  0
   -0.8842   15.5415   -3.8615 H   0  0  0  0  0  0  0  0  0  0  0  0
    1.1019   16.8268   -5.6962 H   0  0  0  0  0  0  0  0  0  0  0  0
    0.1760   17.5736   -4.3855 H   0  0  0  0  0  0  0  0  0  0  0  0
    4.9597   12.5012   -2.3058 H   0  0  0  0  0  0  0  0  0  0  0  0
    4.6717   13.6437   -0.9705 H   0  0  0  0  0  0  0  0  0  0  0  0
    3.8717   12.0730   -0.9624 H   0  0  0  0  0  0  0  0  0  0  0  0
    2.6695   17.3336   -3.6861 H   0  0  0  0  0  0  0  0  0  0  0  0
  1  2  2  0  0  0  0
  1  3  1  0  0  0  0
  2  4  1  0  0  0  0
  3  5  2  0  0  0  0
  3  6  1  0  0  0  0
  4  8  1  0  0  0  0
  4  9  2  0  0  0  0
  5  9  1  0  0  0  0
  5 10  1  0  0  0  0
  6  7  1  0  0  0  0
  7 10  1  0  0  0  0
  1 11  1  0  0  0  0
  2 12  1  0  0  0  0
  6 13  1  0  0  0  0
  6 14  1  0  0  0  0
  7 15  1  0  0  0  0
  7 16  1  0  0  0  0
  8 17  1  0  0  0  0
  8 18  1  0  0  0  0
  8 19  1  0  0  0  0
 10 20  1  0  0  0  0
M  END
> <FRED Chemgauss4 score>
-6.260733

$$$$
MOL0121_2
  -OEChem-06022418023D

 24 25  0     0  0  0  0  0  0999 V2000
   -1.1272   13.2472   -1.8531 C   0  0  0  0  0  0  0  0  0  0  0  0
    0.5778   15.0213   -2.9322 C   0  0  0  0  0  0  0  0  0  0  0  0
   -0.7302   14.8909   -3.3870 C   0  0  0  0  0  0  0  0  0  0  0  0
    0.9482   14.1688   -1.9067 C   0  0  0  0  0  0  0  0  0  0  0  0
    1.5381   15.9784   -3.5698 C   0  0  0  0  0  0  0  0  0  0  0  0
   -1.2417   15.7969   -4.4776 C   0  0  0  0  0  0  0  0  0  0  0  0
    0.8260   17.0299   -4.4255 C   0  0  0  0  0  0  0  0  0  0  0  0
    3.3306   13.4290   -1.9591 C   0  0  0  0  0  0  0  0  0  0  0  0
   -1.6082   14.0128   -2.8513 N   0  0  0  0  0  0  0  0  0  0  0  0
    0.1168   13.2706   -1.3409 N   0  0  0  0  0  0  0  0  0  0  0  0
   -0.1748   16.3974   -5.2870 N   0  0  0  0  0  0  0  0  0  0  0  0
    2.2769   14.2255   -1.4192 N   0  0  0  0  0  0  0  0  0  0  0  0
   -1.8168   12.5361   -1.4153 H   0  0  0  0  0  0  0  0  0  0  0  0
    2.1267   16.5007   -2.8066 H   0  0  0  0  0  0  0  0  0  0  0  0
    2.2315   15.4062   -4.1992 H   0  0  0  0  0  0  0  0  0  0  0  0
   -1.9041   15.2291   -5.1406 H   0  0  0  0  0  0  0  0  0  0  0  0
   -1.8461   16.5899   -4.0211 H   0  0  0  0  0  0  0  0  0  0  0  0
    0.3475   17.7872   -3.7913 H   0  0  0  0  0  0  0  0  0  0  0  0
    1.5598   17.5574   -5.0447 H   0  0  0  0  0  0  0  0  0  0  0  0
    2.9377   12.8045   -2.7750 H   0  0  0  0  0  0  0  0  0  0  0  0
    4.1231   14.0849   -2.3487 H   0  0  0  0  0  0  0  0  0  0  0  0
    3.7436   12.7837   -1.1699 H   0  0  0  0  0  0  0  0  0  0  0  0
    0.2738   15.6703   -5.8447 H   0  0  0  0  0  0  0  0  0  0  0  0
    2.4511   14.8581   -0.6649 H   0  0  0  0  0  0  0  0  0  0  0  0
  1  9  1  0  0  0  0
  1 10  2  0  0  0  0
  2  3  1  0  0  0  0
  2  4  2  0  0  0  0
  2  5  1  0  0  0  0
  3  6  1  0  0  0  0
  3  9  2  0  0  0  0
  4 10  1  0  0  0  0
  4 12  1  0  0  0  0
  5  7  1  0  0  0  0
  6 11  1  0  0  0  0
  7 11  1  0  0  0  0
  8 12  1  0  0  0  0
  1 13  1  0  0  0  0
  5 14  1  0  0  0  0
  5 15  1  0  0  0  0
  6 16  1  0  0  0  0
  6 17  1  0  0  0  0
  7 18  1  0  0  0  0
  7 19  1  0  0  0  0
  8 20  1  0  0  0  0
  8 21  1  0  0  0  0
  8 22  1  0  0  0  0
 11 23  1  0  0  0  0
 12 24  1  0  0  0  0
M  END
> <FRED Chemgauss4 score>
-6.257230

$$$$
MOL0123_2
  -OEChem-06022418023D

 27 29  0     0  0  0  0  0  0999 V2000
   -3.8021   13.6088   -2.4580 C   0  0  0  0  0  0  0  0  0  0  0  0
   -3.0566   15.0707   -0.6848 C   0  0  0  0  0  0  0  0  0  0  0  0
   -5.1109   13.7022   -1.9848 C   0  0  0  0  0  0  0  0  0  0  0  0
   -4.3655   15.1642   -0.2116 C   0  0  0  0  0  0  0  0  0  0  0  0
   -0.0110   13.9153   -4.0716 C   0  0  0  0  0  0  0  0  0  0  0  0
   -2.7750   14.2931   -1.8080 C   0  0  0  0  0  0  0  0  0  0  0  0
    1.0575   14.0102   -3.2196 C   0  0  0  0  0  0  0  0  0  0  0  0
   -5.3926   14.4799   -0.8616 C   0  0  0  0  0  0  0  0  0  0  0  0
    0.7985   14.2127   -1.8737 C   0  0  0  0  0  0  0  0  0  0  0  0
   -1.4234   14.1968   -2.2966 C   0  0  0  0  0  0  0  0  0  0  0  0
    2.5207   13.9785   -3.4784 C   0  0  0  0  0  0  0  0  0  0  0  0
    3.0831   13.9267   -2.0413 C   0  0  0  0  0  0  0  0  0  0  0  0
   -1.2821   14.0021   -3.6295 N   0  0  0  0  0  0  0  0  0  0  0  0
   -0.4438   14.3125   -1.3735 N   0  0  0  0  0  0  0  0  0  0  0  0
    1.9973   14.2998   -1.1504 N   0  0  0  0  0  0  0  0  0  0  0  0
   -6.6697   14.5713   -0.4005 O   0  0  0  0  0  0  0  0  0  0  0  0
   -3.5983   12.9987   -3.3347 H   0  0  0  0  0  0  0  0  0  0  0  0
   -2.2670   15.6102   -0.1672 H   0  0  0  0  0  0  0  0  0  0  0  0
   -5.9068   13.1671   -2.4955 H   0  0  0  0  0  0  0  0  0  0  0  0
   -4.5790   15.7716    0.6636 H   0  0  0  0  0  0  0  0  0  0  0  0
    0.1114   13.7694   -5.1378 H   0  0  0  0  0  0  0  0  0  0  0  0
    2.8176   13.0974   -4.0541 H   0  0  0  0  0  0  0  0  0  0  0  0
    2.8369   14.8922   -3.9916 H   0  0  0  0  0  0  0  0  0  0  0  0
    3.4139   12.9086   -1.8033 H   0  0  0  0  0  0  0  0  0  0  0  0
    3.9423   14.5950   -1.9252 H   0  0  0  0  0  0  0  0  0  0  0  0
    2.0523   14.3807   -0.1472 H   0  0  0  0  0  0  0  0  0  0  0  0
   -6.7048   15.1447    0.3819 H   0  0  0  0  0  0  0  0  0  0  0  0
  1  3  2  0  0  0  0
  1  6  1  0  0  0  0
  2  4  1  0  0  0  0
  2  6  2  0  0  0  0
  3  8  1  0  0  0  0
  4  8  2  0  0  0  0
  5  7  1  0  0  0  0
  5 13  2  0  0  0  0
  6 10  1  0  0  0  0
  7  9  2  0  0  0  0
  7 11  1  0  0  0  0
  8 16  1  0  0  0  0
  9 14  1  0  0  0  0
  9 15  1  0  0  0  0
 10 13  1  0  0  0  0
 10 14  2  0  0  0  0
 11 12  1  0  0  0  0
 12 15  1  0  0  0  0
  1 17  1  0  0  0  0
  2 18  1  0  0  0  0
  3 19  1  0  0  0  0
  4 20  1  0  0  0  0
  5 21  1  0  0  0  0
 11 22  1  0  0  0  0
 11 23  1  0  0  0  0
 12 24  1  0  0  0  0
 12 25  1  0  0  0  0
 15 26  1  0  0  0  0
 16 27  1  0  0  0  0
M  END
> <FRED Chemgauss4 score>
-6.249319

$$$$
MOL0150_4
  -OEChem-06022418023D

 25 27  0     0  0  0  0  0  0999 V2000
    2.6082   12.5698   -3.1240 C   0  0  0  0  0  0  0  0  0  0  0  0
    1.2447   12.6285   -2.8585 C   0  0  0  0  0  0  0  0  0  0  0  0
    3.3983   13.6246   -2.6962 C   0  0  0  0  0  0  0  0  0  0  0  0
    1.5948   14.7277   -1.7969 C   0  0  0  0  0  0  0  0  0  0  0  0
   -2.8339   13.2985   -2.4878 C   0  0  0  0  0  0  0  0  0  0  0  0
    0.7202   13.7247   -2.1828 C   0  0  0  0  0  0  0  0  0  0  0  0
   -3.2876   13.9720   -1.3847 C   0  0  0  0  0  0  0  0  0  0  0  0
   -2.3491   14.5554   -0.5489 C   0  0  0  0  0  0  0  0  0  0  0  0
   -0.6880   13.8147   -1.8934 C   0  0  0  0  0  0  0  0  0  0  0  0
   -4.6630   14.1737   -0.8589 C   0  0  0  0  0  0  0  0  0  0  0  0
   -4.4100   15.1933    0.2727 C   0  0  0  0  0  0  0  0  0  0  0  0
    2.9250   14.7059   -2.0371 N   0  0  0  0  0  0  0  0  0  0  0  0
   -1.5190   13.2063   -2.7730 N   0  0  0  0  0  0  0  0  0  0  0  0
   -1.0269   14.4943   -0.7761 N   0  0  0  0  0  0  0  0  0  0  0  0
   -2.9802   15.1881    0.5324 N   0  0  0  0  0  0  0  0  0  0  0  0
    3.0399   11.7251   -3.6484 H   0  0  0  0  0  0  0  0  0  0  0  0
    0.6032   11.8133   -3.1840 H   0  0  0  0  0  0  0  0  0  0  0  0
    4.4680   13.6269   -2.8792 H   0  0  0  0  0  0  0  0  0  0  0  0
    1.2487   15.6095   -1.2651 H   0  0  0  0  0  0  0  0  0  0  0  0
   -3.5051   12.8063   -3.1809 H   0  0  0  0  0  0  0  0  0  0  0  0
   -5.3379   14.5801   -1.6174 H   0  0  0  0  0  0  0  0  0  0  0  0
   -5.0603   13.2347   -0.4604 H   0  0  0  0  0  0  0  0  0  0  0  0
   -4.7166   16.1960   -0.0489 H   0  0  0  0  0  0  0  0  0  0  0  0
   -4.9800   14.9400    1.1723 H   0  0  0  0  0  0  0  0  0  0  0  0
   -2.5008   15.7332    1.2318 H   0  0  0  0  0  0  0  0  0  0  0  0
  1  2  2  0  0  0  0
  1  3  1  0  0  0  0
  2  6  1  0  0  0  0
  3 12  2  0  0  0  0
  4  6  2  0  0  0  0
  4 12  1  0  0  0  0
  5  7  1  0  0  0  0
  5 13  2  0  0  0  0
  6  9  1  0  0  0  0
  7  8  2  0  0  0  0
  7 10  1  0  0  0  0
  8 14  1  0  0  0  0
  8 15  1  0  0  0  0
  9 13  1  0  0  0  0
  9 14  2  0  0  0  0
 10 11  1  0  0  0  0
 11 15  1  0  0  0  0
  1 16  1  0  0  0  0
  2 17  1  0  0  0  0
  3 18  1  0  0  0  0
  4 19  1  0  0  0  0
  5 20  1  0  0  0  0
 10 21  1  0  0  0  0
 10 22  1  0  0  0  0
 11 23  1  0  0  0  0
 11 24  1  0  0  0  0
 15 25  1  0  0  0  0
M  END
> <FRED Chemgauss4 score>
-6.225019

$$$$
MOL0193_1
  -OEChem-06022418023D

 28 30  0     0  0  0  0  0  0999 V2000
   -5.3814   14.9722    0.8257 C   0  0  0  0  0  0  0  0  0  0  0  0
   -6.2569   14.4409   -0.1214 C   0  0  0  0  0  0  0  0  0  0  0  0
   -4.0498   15.2126    0.4870 C   0  0  0  0  0  0  0  0  0  0  0  0
   -5.8007   14.1498   -1.4070 C   0  0  0  0  0  0  0  0  0  0  0  0
   -3.5936   14.9215   -0.7986 C   0  0  0  0  0  0  0  0  0  0  0  0
   -0.6456   13.4428   -4.3303 C   0  0  0  0  0  0  0  0  0  0  0  0
   -4.4691   14.3901   -1.7456 C   0  0  0  0  0  0  0  0  0  0  0  0
   -0.0936   14.6958   -4.2894 C   0  0  0  0  0  0  0  0  0  0  0  0
   -0.8899   15.7420   -3.8521 C   0  0  0  0  0  0  0  0  0  0  0  0
   -2.6078   14.3050   -3.5359 C   0  0  0  0  0  0  0  0  0  0  0  0
   -3.9798   14.0778   -3.1248 C   0  0  0  0  0  0  0  0  0  0  0  0
    1.2533   15.1847   -4.6841 C   0  0  0  0  0  0  0  0  0  0  0  0
    1.2155   16.6370   -4.1610 C   0  0  0  0  0  0  0  0  0  0  0  0
   -1.9190   13.2146   -3.9494 N   0  0  0  0  0  0  0  0  0  0  0  0
   -2.1654   15.5795   -3.4647 N   0  0  0  0  0  0  0  0  0  0  0  0
   -0.1768   16.9494   -3.8860 N   0  0  0  0  0  0  0  0  0  0  0  0
   -4.8061   13.6066   -3.9235 O   0  0  0  0  0  0  0  0  0  0  0  0
   -5.7366   15.1988    1.8266 H   0  0  0  0  0  0  0  0  0  0  0  0
   -7.2936   14.2536    0.1426 H   0  0  0  0  0  0  0  0  0  0  0  0
   -3.3682   15.6265    1.2243 H   0  0  0  0  0  0  0  0  0  0  0  0
   -6.4915   13.7361   -2.1372 H   0  0  0  0  0  0  0  0  0  0  0  0
   -2.5538   15.1127   -1.0513 H   0  0  0  0  0  0  0  0  0  0  0  0
   -0.0911   12.5774   -4.6723 H   0  0  0  0  0  0  0  0  0  0  0  0
    2.0542   14.6107   -4.2094 H   0  0  0  0  0  0  0  0  0  0  0  0
    1.3630   15.1624   -5.7732 H   0  0  0  0  0  0  0  0  0  0  0  0
    1.7949   16.7180   -3.2334 H   0  0  0  0  0  0  0  0  0  0  0  0
    1.6452   17.3336   -4.8880 H   0  0  0  0  0  0  0  0  0  0  0  0
   -0.5336   17.8305   -3.5503 H   0  0  0  0  0  0  0  0  0  0  0  0
  1  2  1  0  0  0  0
  1  3  2  0  0  0  0
  2  4  2  0  0  0  0
  3  5  1  0  0  0  0
  4  7  1  0  0  0  0
  5  7  2  0  0  0  0
  6  8  1  0  0  0  0
  6 14  2  0  0  0  0
  7 11  1  0  0  0  0
  8  9  2  0  0  0  0
  8 12  1  0  0  0  0
  9 15  1  0  0  0  0
  9 16  1  0  0  0  0
 10 11  1  0  0  0  0
 10 14  1  0  0  0  0
 10 15  2  0  0  0  0
 11 17  2  0  0  0  0
 12 13  1  0  0  0  0
 13 16  1  0  0  0  0
  1 18  1  0  0  0  0
  2 19  1  0  0  0  0
  3 20  1  0  0  0  0
  4 21  1  0  0  0  0
  5 22  1  0  0  0  0
  6 23  1  0  0  0  0
 12 24  1  0  0  0  0
 12 25  1  0  0  0  0
 13 26  1  0  0  0  0
 13 27  1  0  0  0  0
 16 28  1  0  0  0  0
M  END
> <FRED Chemgauss4 score>
-6.217915

$$$$
MOL0152_3
  -OEChem-06022418023D

 23 24  0     0  0  0  0  0  0999 V2000
    2.1047   13.9963   -1.7082 C   0  0  0  0  0  0  0  0  0  0  0  0
    0.0449   15.0678   -3.0602 C   0  0  0  0  0  0  0  0  0  0  0  0
    1.3301   15.5930   -3.1444 C   0  0  0  0  0  0  0  0  0  0  0  0
   -0.1074   13.9756   -2.2238 C   0  0  0  0  0  0  0  0  0  0  0  0
   -1.1089   15.6987   -3.7784 C   0  0  0  0  0  0  0  0  0  0  0  0
    1.6074   16.7616   -4.0550 C   0  0  0  0  0  0  0  0  0  0  0  0
   -0.6506   16.6536   -4.8844 C   0  0  0  0  0  0  0  0  0  0  0  0
   -2.5943   14.6012   -1.2558 C   0  0  0  0  0  0  0  0  0  0  0  0
    2.3831   15.0631   -2.4817 N   0  0  0  0  0  0  0  0  0  0  0  0
    0.9052   13.4118   -1.5347 N   0  0  0  0  0  0  0  0  0  0  0  0
    0.4081   17.5373   -4.3924 N   0  0  0  0  0  0  0  0  0  0  0  0
   -1.6940   13.1961   -1.9434 S   0  0  0  0  0  0  0  0  0  0  0  0
    2.9368   13.5615   -1.1681 H   0  0  0  0  0  0  0  0  0  0  0  0
   -1.7451   14.9374   -4.2433 H   0  0  0  0  0  0  0  0  0  0  0  0
   -1.7136   16.2529   -3.0492 H   0  0  0  0  0  0  0  0  0  0  0  0
    2.3300   17.4312   -3.5751 H   0  0  0  0  0  0  0  0  0  0  0  0
    2.0741   16.3887   -4.9746 H   0  0  0  0  0  0  0  0  0  0  0  0
   -0.2939   16.0932   -5.7579 H   0  0  0  0  0  0  0  0  0  0  0  0
   -1.4997   17.2565   -5.2245 H   0  0  0  0  0  0  0  0  0  0  0  0
   -3.6184   14.3050   -1.0157 H   0  0  0  0  0  0  0  0  0  0  0  0
   -2.6204   15.4168   -1.9827 H   0  0  0  0  0  0  0  0  0  0  0  0
   -2.1001   14.9493   -0.3456 H   0  0  0  0  0  0  0  0  0  0  0  0
    0.0784   18.0281   -3.5610 H   0  0  0  0  0  0  0  0  0  0  0  0
  1  9  1  0  0  0  0
  1 10  2  0  0  0  0
  2  3  1  0  0  0  0
  2  4  2  0  0  0  0
  2  5  1  0  0  0  0
  3  6  1  0  0  0  0
  3  9  2  0  0  0  0
  4 10  1  0  0  0  0
  4 12  1  0  0  0  0
  5  7  1  0  0  0  0
  6 11  1  0  0  0  0
  7 11  1  0  0  0  0
  8 12  1  0  0  0  0
  1 13  1  0  0  0  0
  5 14  1  0  0  0  0
  5 15  1  0  0  0  0
  6 16  1  0  0  0  0
  6 17  1  0  0  0  0
  7 18  1  0  0  0  0
  7 19  1  0  0  0  0
  8 20  1  0  0  0  0
  8 21  1  0  0  0  0
  8 22  1  0  0  0  0
 11 23  1  0  0  0  0
M  END
> <FRED Chemgauss4 score>
-6.212230

$$$$
MOL0063_1
  -OEChem-06022418023D

 20 21  0     0  0  0  0  0  0999 V2000
   -2.7709   15.0118    1.3740 C   0  0  0  0  0  0  0  0  0  0  0  0
   -0.5059   14.7158    1.1297 C   0  0  0  0  0  0  0  0  0  0  0  0
   -2.9865   14.9634    0.0010 C   0  0  0  0  0  0  0  0  0  0  0  0
   -1.8738   14.7548   -0.8244 C   0  0  0  0  0  0  0  0  0  0  0  0
   -0.6071   14.6416   -0.2502 C   0  0  0  0  0  0  0  0  0  0  0  0
   -2.0409   14.7162   -2.3213 C   0  0  0  0  0  0  0  0  0  0  0  0
   -4.3727   15.0611   -0.5748 C   0  0  0  0  0  0  0  0  0  0  0  0
   -3.4942   14.4825   -2.7423 C   0  0  0  0  0  0  0  0  0  0  0  0
   -1.5574   14.8957    1.9585 N   0  0  0  0  0  0  0  0  0  0  0  0
   -4.3873   15.3791   -2.0080 N   0  0  0  0  0  0  0  0  0  0  0  0
    0.9880   14.4196   -1.2481 Br  0  0  0  0  0  0  0  0  0  0  0  0
   -3.5961   15.1482    2.0662 H   0  0  0  0  0  0  0  0  0  0  0  0
    0.4510   14.6367    1.6375 H   0  0  0  0  0  0  0  0  0  0  0  0
   -1.6908   15.6707   -2.7345 H   0  0  0  0  0  0  0  0  0  0  0  0
   -1.4413   13.9108   -2.7598 H   0  0  0  0  0  0  0  0  0  0  0  0
   -4.8948   14.1119   -0.4019 H   0  0  0  0  0  0  0  0  0  0  0  0
   -4.9286   15.8474   -0.0513 H   0  0  0  0  0  0  0  0  0  0  0  0
   -3.5914   14.6710   -3.8173 H   0  0  0  0  0  0  0  0  0  0  0  0
   -3.7847   13.4371   -2.5752 H   0  0  0  0  0  0  0  0  0  0  0  0
   -5.3384   15.2785   -2.3615 H   0  0  0  0  0  0  0  0  0  0  0  0
  1  3  2  0  0  0  0
  1  9  1  0  0  0  0
  2  5  1  0  0  0  0
  2  9  2  0  0  0  0
  3  4  1  0  0  0  0
  3  7  1  0  0  0  0
  4  5  2  0  0  0  0
  4  6  1  0  0  0  0
  5 11  1  0  0  0  0
  6  8  1  0  0  0  0
  7 10  1  0  0  0  0
  8 10  1  0  0  0  0
  1 12  1  0  0  0  0
  2 13  1  0  0  0  0
  6 14  1  0  0  0  0
  6 15  1  0  0  0  0
  7 16  1  0  0  0  0
  7 17  1  0  0  0  0
  8 18  1  0  0  0  0
  8 19  1  0  0  0  0
 10 20  1  0  0  0  0
M  END
> <FRED Chemgauss4 score>
-6.172582

$$$$
MOL0046_1
  -OEChem-06022418023D

 22 23  0     0  0  0  0  0  0999 V2000
   -0.0165   13.7154   -2.0495 C   0  0  0  0  0  0  0  0  0  0  0  0
    2.0697   13.9403   -1.1928 C   0  0  0  0  0  0  0  0  0  0  0  0
    0.2727   14.5799   -3.0965 C   0  0  0  0  0  0  0  0  0  0  0  0
    1.5648   15.0948   -3.1065 C   0  0  0  0  0  0  0  0  0  0  0  0
   -0.7500   14.9082   -4.1423 C   0  0  0  0  0  0  0  0  0  0  0  0
    2.0282   16.0268   -4.1935 C   0  0  0  0  0  0  0  0  0  0  0  0
   -1.0584   16.4041   -4.2403 C   0  0  0  0  0  0  0  0  0  0  0  0
    1.2145   17.3190   -4.2735 C   0  0  0  0  0  0  0  0  0  0  0  0
    0.8570   13.3757   -1.0803 N   0  0  0  0  0  0  0  0  0  0  0  0
    2.4801   14.7852   -2.1561 N   0  0  0  0  0  0  0  0  0  0  0  0
   -0.0548   17.1650   -4.9859 N   0  0  0  0  0  0  0  0  0  0  0  0
   -0.9953   13.2552   -1.9533 H   0  0  0  0  0  0  0  0  0  0  0  0
    2.7950   13.6889   -0.4288 H   0  0  0  0  0  0  0  0  0  0  0  0
   -0.4265   14.5056   -5.1108 H   0  0  0  0  0  0  0  0  0  0  0  0
   -1.6880   14.3891   -3.9048 H   0  0  0  0  0  0  0  0  0  0  0  0
    3.0739   16.2973   -3.9962 H   0  0  0  0  0  0  0  0  0  0  0  0
    2.0327   15.4970   -5.1545 H   0  0  0  0  0  0  0  0  0  0  0  0
   -2.0030   16.5168   -4.7856 H   0  0  0  0  0  0  0  0  0  0  0  0
   -1.2237   16.8469   -3.2501 H   0  0  0  0  0  0  0  0  0  0  0  0
    1.0528   17.7575   -3.2808 H   0  0  0  0  0  0  0  0  0  0  0  0
    1.8019   18.0518   -4.8393 H   0  0  0  0  0  0  0  0  0  0  0  0
    0.1102   16.7219   -5.8893 H   0  0  0  0  0  0  0  0  0  0  0  0
  1  3  1  0  0  0  0
  1  9  2  0  0  0  0
  2  9  1  0  0  0  0
  2 10  2  0  0  0  0
  3  4  2  0  0  0  0
  3  5  1  0  0  0  0
  4  6  1  0  0  0  0
  4 10  1  0  0  0  0
  5  7  1  0  0  0  0
  6  8  1  0  0  0  0
  7 11  1  0  0  0  0
  8 11  1  0  0  0  0
  1 12  1  0  0  0  0
  2 13  1  0  0  0  0
  5 14  1  0  0  0  0
  5 15  1  0  0  0  0
  6 16  1  0  0  0  0
  6 17  1  0  0  0  0
  7 18  1  0  0  0  0
  7 19  1  0  0  0  0
  8 20  1  0  0  0  0
  8 21  1  0  0  0  0
 11 22  1  0  0  0  0
M  END
> <FRED Chemgauss4 score>
-6.163272

$$$$
MOL0106_1
  -OEChem-06022418023D

 18 19  0     0  0  0  0  0  0999 V2000
   -1.5726   14.7326   -1.0718 C   0  0  0  0  0  0  0  0  0  0  0  0
   -0.3338   14.5245   -0.4757 C   0  0  0  0  0  0  0  0  0  0  0  0
   -2.6563   14.9567   -0.2457 C   0  0  0  0  0  0  0  0  0  0  0  0
   -2.4930   14.9612    1.1363 C   0  0  0  0  0  0  0  0  0  0  0  0
   -0.2549   14.5471    0.9146 C   0  0  0  0  0  0  0  0  0  0  0  0
   -4.0872   15.1811   -0.6037 C   0  0  0  0  0  0  0  0  0  0  0  0
   -4.7049   15.5279    0.7672 C   0  0  0  0  0  0  0  0  0  0  0  0
   -1.3079   14.7592    1.7419 N   0  0  0  0  0  0  0  0  0  0  0  0
   -3.7166   15.1956    1.7773 N   0  0  0  0  0  0  0  0  0  0  0  0
    0.9644   14.3403    1.5072 O   0  0  0  0  0  0  0  0  0  0  0  0
   -1.6796   14.7168   -2.1506 H   0  0  0  0  0  0  0  0  0  0  0  0
    0.5463   14.3463   -1.0848 H   0  0  0  0  0  0  0  0  0  0  0  0
   -4.2038   16.0057   -1.3128 H   0  0  0  0  0  0  0  0  0  0  0  0
   -4.5257   14.2646   -1.0111 H   0  0  0  0  0  0  0  0  0  0  0  0
   -4.9316   16.5995    0.8174 H   0  0  0  0  0  0  0  0  0  0  0  0
   -5.6388   14.9805    0.9313 H   0  0  0  0  0  0  0  0  0  0  0  0
   -3.8298   15.2925    2.7743 H   0  0  0  0  0  0  0  0  0  0  0  0
    1.6375   14.1994    0.8275 H   0  0  0  0  0  0  0  0  0  0  0  0
  1  2  2  0  0  0  0
  1  3  1  0  0  0  0
  2  5  1  0  0  0  0
  3  4  2  0  0  0  0
  3  6  1  0  0  0  0
  4  8  1  0  0  0  0
  4  9  1  0  0  0  0
  5  8  2  0  0  0  0
  5 10  1  0  0  0  0
  6  7  1  0  0  0  0
  7  9  1  0  0  0  0
  1 11  1  0  0  0  0
  2 12  1  0  0  0  0
  6 13  1  0  0  0  0
  6 14  1  0  0  0  0
  7 15  1  0  0  0  0
  7 16  1  0  0  0  0
  9 17  1  0  0  0  0
 10 18  1  0  0  0  0
M  END
> <FRED Chemgauss4 score>
-6.158941

$$$$
MOL0201_1
  -OEChem-06022418023D

 21 22  0     0  0  0  0  0  0999 V2000
    0.0028   14.8034    1.0915 C   0  0  0  0  0  0  0  0  0  0  0  0
    0.0423   14.7150   -0.2749 C   0  0  0  0  0  0  0  0  0  0  0  0
   -1.1615   14.7205   -0.9608 C   0  0  0  0  0  0  0  0  0  0  0  0
   -2.2788   14.9046    0.9971 C   0  0  0  0  0  0  0  0  0  0  0  0
    1.1854   14.5639   -1.2126 C   0  0  0  0  0  0  0  0  0  0  0  0
    0.4867   14.7492   -2.5770 C   0  0  0  0  0  0  0  0  0  0  0  0
   -4.7710   15.0233    1.0175 C   0  0  0  0  0  0  0  0  0  0  0  0
   -1.1621   14.9050    1.7635 N   0  0  0  0  0  0  0  0  0  0  0  0
   -2.3532   14.8142   -0.3487 N   0  0  0  0  0  0  0  0  0  0  0  0
   -0.9406   14.6095   -2.3416 N   0  0  0  0  0  0  0  0  0  0  0  0
   -3.5080   15.0085    1.6856 N   0  0  0  0  0  0  0  0  0  0  0  0
    0.9006   14.7934    1.6972 H   0  0  0  0  0  0  0  0  0  0  0  0
    1.9530   15.3260   -1.0517 H   0  0  0  0  0  0  0  0  0  0  0  0
    1.6190   13.5626   -1.1269 H   0  0  0  0  0  0  0  0  0  0  0  0
    0.6929   15.7511   -2.9728 H   0  0  0  0  0  0  0  0  0  0  0  0
    0.8436   14.0185   -3.3099 H   0  0  0  0  0  0  0  0  0  0  0  0
   -4.6131   14.9417   -0.0681 H   0  0  0  0  0  0  0  0  0  0  0  0
   -5.3791   14.1748    1.3642 H   0  0  0  0  0  0  0  0  0  0  0  0
   -5.2935   15.9649    1.2421 H   0  0  0  0  0  0  0  0  0  0  0  0
   -1.6664   14.6584   -3.0395 H   0  0  0  0  0  0  0  0  0  0  0  0
   -3.4628   15.0745    2.6839 H   0  0  0  0  0  0  0  0  0  0  0  0
  1  2  1  0  0  0  0
  1  8  2  0  0  0  0
  2  3  2  0  0  0  0
  2  5  1  0  0  0  0
  3  9  1  0  0  0  0
  3 10  1  0  0  0  0
  4  8  1  0  0  0  0
  4  9  2  0  0  0  0
  4 11  1  0  0  0  0
  5  6  1  0  0  0  0
  6 10  1  0  0  0  0
  7 11  1  0  0  0  0
  1 12  1  0  0  0  0
  5 13  1  0  0  0  0
  5 14  1  0  0  0  0
  6 15  1  0  0  0  0
  6 16  1  0  0  0  0
  7 17  1  0  0  0  0
  7 18  1  0  0  0  0
  7 19  1  0  0  0  0
 10 20  1  0  0  0  0
 11 21  1  0  0  0  0
M  END
> <FRED Chemgauss4 score>
-6.128114

$$$$
MOL0158_1
  -OEChem-06022418023D

 19 20  0     0  0  0  0  0  0999 V2000
   -3.2901   15.1698    1.2045 C   0  0  0  0  0  0  0  0  0  0  0  0
   -3.6274   15.1162   -0.1371 C   0  0  0  0  0  0  0  0  0  0  0  0
   -2.5687   14.9236   -1.0186 C   0  0  0  0  0  0  0  0  0  0  0  0
   -1.0874   14.9024    0.7171 C   0  0  0  0  0  0  0  0  0  0  0  0
   -5.0493   15.1849   -0.6100 C   0  0  0  0  0  0  0  0  0  0  0  0
   -2.8304   14.8795   -2.5009 C   0  0  0  0  0  0  0  0  0  0  0  0
   -4.3000   14.5971   -2.8233 C   0  0  0  0  0  0  0  0  0  0  0  0
   -2.0268   15.0702    1.6657 N   0  0  0  0  0  0  0  0  0  0  0  0
   -1.2826   14.8240   -0.6129 N   0  0  0  0  0  0  0  0  0  0  0  0
   -5.1826   15.4716   -2.0454 N   0  0  0  0  0  0  0  0  0  0  0  0
    0.1831   14.8006    1.1428 F   0  0  0  0  0  0  0  0  0  0  0  0
   -4.0475   15.3004    1.9709 H   0  0  0  0  0  0  0  0  0  0  0  0
   -5.5530   14.2311   -0.4064 H   0  0  0  0  0  0  0  0  0  0  0  0
   -5.5797   15.9575   -0.0371 H   0  0  0  0  0  0  0  0  0  0  0  0
   -2.5351   15.8313   -2.9553 H   0  0  0  0  0  0  0  0  0  0  0  0
   -2.1991   14.0938   -2.9327 H   0  0  0  0  0  0  0  0  0  0  0  0
   -4.4958   14.7285   -3.8976 H   0  0  0  0  0  0  0  0  0  0  0  0
   -4.5318   13.5493   -2.5920 H   0  0  0  0  0  0  0  0  0  0  0  0
   -6.1474   15.3115   -2.3303 H   0  0  0  0  0  0  0  0  0  0  0  0
  1  2  1  0  0  0  0
  1  8  2  0  0  0  0
  2  3  2  0  0  0  0
  2  5  1  0  0  0  0
  3  6  1  0  0  0  0
  3  9  1  0  0  0  0
  4  8  1  0  0  0  0
  4  9  2  0  0  0  0
  4 11  1  0  0  0  0
  5 10  1  0  0  0  0
  6  7  1  0  0  0  0
  7 10  1  0  0  0  0
  1 12  1  0  0  0  0
  5 13  1  0  0  0  0
  5 14  1  0  0  0  0
  6 15  1  0  0  0  0
  6 16  1  0  0  0  0
  7 17  1  0  0  0  0
  7 18  1  0  0  0  0
 10 19  1  0  0  0  0
M  END
> <FRED Chemgauss4 score>
-6.078251

$$$$
MOL0139_1
  -OEChem-06022418023D

 25 26  0     0  0  0  0  0  0999 V2000
    1.5039   15.5191   -3.1374 C   0  0  0  0  0  0  0  0  0  0  0  0
    2.1097   14.0155   -1.5517 C   0  0  0  0  0  0  0  0  0  0  0  0
    0.2154   15.0097   -3.1801 C   0  0  0  0  0  0  0  0  0  0  0  0
   -0.0529   13.9580   -2.3064 C   0  0  0  0  0  0  0  0  0  0  0  0
   -0.8335   15.6061   -4.0707 C   0  0  0  0  0  0  0  0  0  0  0  0
   -2.4747   14.2287   -2.9887 C   0  0  0  0  0  0  0  0  0  0  0  0
   -1.4345   13.3096   -2.2939 C   0  0  0  0  0  0  0  0  0  0  0  0
   -1.3405   11.9522   -3.0198 C   0  0  0  0  0  0  0  0  0  0  0  0
   -1.9063   13.0658   -0.8471 C   0  0  0  0  0  0  0  0  0  0  0  0
    2.4772   15.0427   -2.3362 N   0  0  0  0  0  0  0  0  0  0  0  0
    0.8952   13.4377   -1.4898 N   0  0  0  0  0  0  0  0  0  0  0  0
   -1.9982   14.7394   -4.2768 N   0  0  0  0  0  0  0  0  0  0  0  0
    1.7997   16.3520   -3.7679 H   0  0  0  0  0  0  0  0  0  0  0  0
    2.8715   13.6085   -0.8982 H   0  0  0  0  0  0  0  0  0  0  0  0
   -1.1865   16.5543   -3.6443 H   0  0  0  0  0  0  0  0  0  0  0  0
   -0.3820   15.8426   -5.0441 H   0  0  0  0  0  0  0  0  0  0  0  0
   -3.4307   13.6988   -3.1418 H   0  0  0  0  0  0  0  0  0  0  0  0
   -2.7154   15.0850   -2.3386 H   0  0  0  0  0  0  0  0  0  0  0  0
   -2.3166   11.4810   -3.0178 H   0  0  0  0  0  0  0  0  0  0  0  0
   -0.6266   11.3222   -2.5018 H   0  0  0  0  0  0  0  0  0  0  0  0
   -1.0136   12.1177   -4.0398 H   0  0  0  0  0  0  0  0  0  0  0  0
   -2.8874   12.6059   -0.8672 H   0  0  0  0  0  0  0  0  0  0  0  0
   -1.9552   14.0148   -0.3260 H   0  0  0  0  0  0  0  0  0  0  0  0
   -1.2015   12.4088   -0.3508 H   0  0  0  0  0  0  0  0  0  0  0  0
   -2.7382   15.2653   -4.7375 H   0  0  0  0  0  0  0  0  0  0  0  0
  1  3  1  0  0  0  0
  1 10  2  0  0  0  0
  2 10  1  0  0  0  0
  2 11  2  0  0  0  0
  3  4  2  0  0  0  0
  3  5  1  0  0  0  0
  4  7  1  0  0  0  0
  4 11  1  0  0  0  0
  5 12  1  0  0  0  0
  6  7  1  0  0  0  0
  6 12  1  0  0  0  0
  7  8  1  0  0  0  0
  7  9  1  0  0  0  0
  1 13  1  0  0  0  0
  2 14  1  0  0  0  0
  5 15  1  0  0  0  0
  5 16  1  0  0  0  0
  6 17  1  0  0  0  0
  6 18  1  0  0  0  0
  8 19  1  0  0  0  0
  8 20  1  0  0  0  0
  8 21  1  0  0  0  0
  9 22  1  0  0  0  0
  9 23  1  0  0  0  0
  9 24  1  0  0  0  0
 12 25  1  0  0  0  0
M  END
> <FRED Chemgauss4 score>
-6.077174

$$$$
MOL0211_1
  -OEChem-06022418023D

 15 16  0     0  0  0  0  0  0999 V2000
   -0.3336   15.5390   -4.0541 C   0  0  0  0  0  0  0  0  0  0  0  0
   -1.6252   15.0853   -3.8603 C   0  0  0  0  0  0  0  0  0  0  0  0
    1.9850   15.4989   -3.2385 C   0  0  0  0  0  0  0  0  0  0  0  0
   -1.0031   13.8743   -2.0078 C   0  0  0  0  0  0  0  0  0  0  0  0
    2.5084   14.2768   -1.4038 C   0  0  0  0  0  0  0  0  0  0  0  0
    0.6500   15.1135   -3.1521 C   0  0  0  0  0  0  0  0  0  0  0  0
    0.3256   14.2574   -2.0931 C   0  0  0  0  0  0  0  0  0  0  0  0
   -1.9864   14.2607   -2.8562 N   0  0  0  0  0  0  0  0  0  0  0  0
    2.9395   15.0966   -2.3774 N   0  0  0  0  0  0  0  0  0  0  0  0
    1.2498   13.8328   -1.2118 N   0  0  0  0  0  0  0  0  0  0  0  0
   -0.1009   16.2023   -4.8806 H   0  0  0  0  0  0  0  0  0  0  0  0
   -2.4267   15.3823   -4.5282 H   0  0  0  0  0  0  0  0  0  0  0  0
    2.3342   16.1613   -4.0253 H   0  0  0  0  0  0  0  0  0  0  0  0
   -1.3366   13.2109   -1.2140 H   0  0  0  0  0  0  0  0  0  0  0  0
    3.2523   13.9345   -0.6946 H   0  0  0  0  0  0  0  0  0  0  0  0
  1  2  1  0  0  0  0
  1  6  2  0  0  0  0
  2  8  2  0  0  0  0
  3  6  1  0  0  0  0
  3  9  2  0  0  0  0
  4  7  2  0  0  0  0
  4  8  1  0  0  0  0
  5  9  1  0  0  0  0
  5 10  2  0  0  0  0
  6  7  1  0  0  0  0
  7 10  1  0  0  0  0
  1 11  1  0  0  0  0
  2 12  1  0  0  0  0
  3 13  1  0  0  0  0
  4 14  1  0  0  0  0
  5 15  1  0  0  0  0
M  END
> <FRED Chemgauss4 score>
-6.070714

$$$$
MOL0191_1
  -OEChem-06022418023D

 19 20  0     0  0  0  0  0  0999 V2000
    2.4738   13.8912   -1.5425 C   0  0  0  0  0  0  0  0  0  0  0  0
    0.6384   14.8548   -3.2518 C   0  0  0  0  0  0  0  0  0  0  0  0
    0.3682   13.7756   -2.4169 C   0  0  0  0  0  0  0  0  0  0  0  0
    1.9006   15.4097   -3.1316 C   0  0  0  0  0  0  0  0  0  0  0  0
   -0.4046   15.4181   -4.1681 C   0  0  0  0  0  0  0  0  0  0  0  0
   -0.9657   13.0782   -2.4965 C   0  0  0  0  0  0  0  0  0  0  0  0
   -1.5745   14.4523   -4.3778 C   0  0  0  0  0  0  0  0  0  0  0  0
    1.2803   13.2675   -1.5574 N   0  0  0  0  0  0  0  0  0  0  0  0
    2.8453   14.9485   -2.2872 N   0  0  0  0  0  0  0  0  0  0  0  0
   -2.0214   13.9028   -3.0963 N   0  0  0  0  0  0  0  0  0  0  0  0
    2.4319   16.7540   -4.0664 Cl  0  0  0  0  0  0  0  0  0  0  0  0
    3.2149   13.4986   -0.8570 H   0  0  0  0  0  0  0  0  0  0  0  0
   -0.8079   16.3546   -3.7664 H   0  0  0  0  0  0  0  0  0  0  0  0
    0.0644   15.6370   -5.1357 H   0  0  0  0  0  0  0  0  0  0  0  0
   -0.8614   12.1622   -3.0889 H   0  0  0  0  0  0  0  0  0  0  0  0
   -1.2661   12.7761   -1.4861 H   0  0  0  0  0  0  0  0  0  0  0  0
   -2.4101   14.9575   -4.8789 H   0  0  0  0  0  0  0  0  0  0  0  0
   -1.2617   13.6348   -5.0361 H   0  0  0  0  0  0  0  0  0  0  0  0
   -2.8513   13.3289   -3.2476 H   0  0  0  0  0  0  0  0  0  0  0  0
  1  8  1  0  0  0  0
  1  9  2  0  0  0  0
  2  3  1  0  0  0  0
  2  4  2  0  0  0  0
  2  5  1  0  0  0  0
  3  6  1  0  0  0  0
  3  8  2  0  0  0  0
  4  9  1  0  0  0  0
  4 11  1  0  0  0  0
  5  7  1  0  0  0  0
  6 10  1  0  0  0  0
  7 10  1  0  0  0  0
  1 12  1  0  0  0  0
  5 13  1  0  0  0  0
  5 14  1  0  0  0  0
  6 15  1  0  0  0  0
  6 16  1  0  0  0  0
  7 17  1  0  0  0  0
  7 18  1  0  0  0  0
 10 19  1  0  0  0  0
M  END
> <FRED Chemgauss4 score>
-6.052217

$$$$
MOL0099_1
  -OEChem-06022418023D

 14 15  0     0  0  0  0  0  0999 V2000
   -0.6930   13.2339   -3.7143 C   0  0  0  0  0  0  0  0  0  0  0  0
    0.1687   14.2185   -4.1984 C   0  0  0  0  0  0  0  0  0  0  0  0
   -0.4692   12.7059   -2.4466 C   0  0  0  0  0  0  0  0  0  0  0  0
    2.9213   15.4946   -2.4206 C   0  0  0  0  0  0  0  0  0  0  0  0
    1.2198   14.6174   -3.3628 C   0  0  0  0  0  0  0  0  0  0  0  0
    1.3261   14.0070   -2.1207 C   0  0  0  0  0  0  0  0  0  0  0  0
    0.5305   13.0573   -1.6016 N   0  0  0  0  0  0  0  0  0  0  0  0
    2.2212   15.5420   -3.5343 N   0  0  0  0  0  0  0  0  0  0  0  0
    2.4186   14.5803   -1.5340 N   0  0  0  0  0  0  0  0  0  0  0  0
   -1.5247   12.8858   -4.3179 H   0  0  0  0  0  0  0  0  0  0  0  0
    0.0258   14.6532   -5.1814 H   0  0  0  0  0  0  0  0  0  0  0  0
   -1.1335   11.9382   -2.0583 H   0  0  0  0  0  0  0  0  0  0  0  0
    3.7946   16.0894   -2.1942 H   0  0  0  0  0  0  0  0  0  0  0  0
    2.7873   14.3692   -0.6163 H   0  0  0  0  0  0  0  0  0  0  0  0
  1  2  2  0  0  0  0
  1  3  1  0  0  0  0
  2  5  1  0  0  0  0
  3  7  2  0  0  0  0
  4  8  2  0  0  0  0
  4  9  1  0  0  0  0
  5  6  2  0  0  0  0
  5  8  1  0  0  0  0
  6  7  1  0  0  0  0
  6  9  1  0  0  0  0
  1 10  1  0  0  0  0
  2 11  1  0  0  0  0
  3 12  1  0  0  0  0
  4 13  1  0  0  0  0
  9 14  1  0  0  0  0
M  END
> <FRED Chemgauss4 score>
-6.020553

$$$$
MOL0005_1
  -OEChem-06022418023D

 19 20  0     1  0  0  0  0  0999 V2000
    1.9132   15.6499   -3.1917 C   0  0  0  0  0  0  0  0  0  0  0  0
    2.3231   14.3167   -1.3827 C   0  0  0  0  0  0  0  0  0  0  0  0
    0.6135   15.2165   -3.2001 C   0  0  0  0  0  0  0  0  0  0  0  0
    0.2258   14.2891   -2.2428 C   0  0  0  0  0  0  0  0  0  0  0  0
   -0.5162   15.5413   -4.1099 C   0  0  0  0  0  0  0  0  0  0  0  0
   -1.6994   14.9337   -3.3291 C   0  0  0  0  0  0  0  0  0  0  0  0
   -1.8842   13.3019   -1.3757 C   0  0  0  0  0  0  0  0  0  0  0  0
    2.8023   15.2122   -2.2777 N   0  0  0  0  0  0  0  0  0  0  0  0
    1.0697   13.8180   -1.3077 N   0  0  0  0  0  0  0  0  0  0  0  0
   -1.1280   13.9464   -2.4173 N   0  0  2  0  0  0  0  0  0  0  0  0
    2.2897   16.3620   -3.9159 H   0  0  0  0  0  0  0  0  0  0  0  0
    3.0275   13.9568   -0.6422 H   0  0  0  0  0  0  0  0  0  0  0  0
   -0.6414   16.6186   -4.2497 H   0  0  0  0  0  0  0  0  0  0  0  0
   -0.3824   15.0441   -5.0759 H   0  0  0  0  0  0  0  0  0  0  0  0
   -2.2065   15.7187   -2.7527 H   0  0  0  0  0  0  0  0  0  0  0  0
   -2.4347   14.4839   -4.0048 H   0  0  0  0  0  0  0  0  0  0  0  0
   -2.9130   13.1270   -1.7234 H   0  0  0  0  0  0  0  0  0  0  0  0
   -1.4141   12.3400   -1.1231 H   0  0  0  0  0  0  0  0  0  0  0  0
   -1.9031   13.9461   -0.4843 H   0  0  0  0  0  0  0  0  0  0  0  0
  1  3  1  0  0  0  0
  1  8  2  0  0  0  0
  2  8  1  0  0  0  0
  2  9  2  0  0  0  0
  3  4  2  0  0  0  0
  3  5  1  0  0  0  0
  4  9  1  0  0  0  0
  4 10  1  0  0  0  0
  5  6  1  0  0  0  0
  6 10  1  0  0  0  0
  7 10  1  0  0  0  0
  1 11  1  0  0  0  0
  2 12  1  0  0  0  0
  5 13  1  0  0  0  0
  5 14  1  0  0  0  0
  6 15  1  0  0  0  0
  6 16  1  0  0  0  0
  7 17  1  0  0  0  0
  7 18  1  0  0  0  0
  7 19  1  0  0  0  0
M  END
> <FRED Chemgauss4 score>
-6.017048

$$$$
MOL0212_3
  -OEChem-06022418023D

 31 33  0     0  0  0  0  0  0999 V2000
   -3.9480   14.9002   -3.1021 C   0  0  0  0  0  0  0  0  0  0  0  0
   -5.0673   14.6506   -2.7448 C   0  0  0  0  0  0  0  0  0  0  0  0
   -6.7184   14.0545    1.9719 C   0  0  0  0  0  0  0  0  0  0  0  0
   -7.8167   14.4856    1.2279 C   0  0  0  0  0  0  0  0  0  0  0  0
   -5.5281   13.7179    1.3273 C   0  0  0  0  0  0  0  0  0  0  0  0
   -7.7247   14.5799   -0.1607 C   0  0  0  0  0  0  0  0  0  0  0  0
   -5.4361   13.8122   -0.0613 C   0  0  0  0  0  0  0  0  0  0  0  0
   -0.5480   14.4274   -4.1038 C   0  0  0  0  0  0  0  0  0  0  0  0
   -2.6203   15.1948   -3.5195 C   0  0  0  0  0  0  0  0  0  0  0  0
   -0.1371   15.7203   -4.2935 C   0  0  0  0  0  0  0  0  0  0  0  0
   -6.5344   14.2432   -0.8054 C   0  0  0  0  0  0  0  0  0  0  0  0
   -1.0580   16.7326   -4.0763 C   0  0  0  0  0  0  0  0  0  0  0  0
    1.1625   16.2763   -4.7526 C   0  0  0  0  0  0  0  0  0  0  0  0
    0.9480   17.7871   -4.5164 C   0  0  0  0  0  0  0  0  0  0  0  0
   -6.4344   14.3447   -2.3053 C   0  0  0  0  0  0  0  0  0  0  0  0
   -1.8024   14.1316   -3.7067 N   0  0  0  0  0  0  0  0  0  0  0  0
   -2.3218   16.5019   -3.6853 N   0  0  0  0  0  0  0  0  0  0  0  0
   -0.4793   17.9854   -4.3281 N   0  0  0  0  0  0  0  0  0  0  0  0
   -6.7898   13.9824    3.0533 H   0  0  0  0  0  0  0  0  0  0  0  0
   -8.7433   14.7488    1.7297 H   0  0  0  0  0  0  0  0  0  0  0  0
   -4.6725   13.3833    1.9064 H   0  0  0  0  0  0  0  0  0  0  0  0
   -8.5856   14.9166   -0.7323 H   0  0  0  0  0  0  0  0  0  0  0  0
   -4.5047   13.5477   -0.5549 H   0  0  0  0  0  0  0  0  0  0  0  0
    0.1098   13.5823   -4.2658 H   0  0  0  0  0  0  0  0  0  0  0  0
    2.0030   15.8971   -4.1645 H   0  0  0  0  0  0  0  0  0  0  0  0
    1.3145   16.0629   -5.8153 H   0  0  0  0  0  0  0  0  0  0  0  0
    1.4808   18.1058   -3.6126 H   0  0  0  0  0  0  0  0  0  0  0  0
    1.3259   18.3796   -5.3559 H   0  0  0  0  0  0  0  0  0  0  0  0
   -7.1266   15.1149   -2.6671 H   0  0  0  0  0  0  0  0  0  0  0  0
   -6.7729   13.4051   -2.7591 H   0  0  0  0  0  0  0  0  0  0  0  0
   -0.9420   18.8675   -4.1736 H   0  0  0  0  0  0  0  0  0  0  0  0
  1  2  3  0  0  0  0
  1  9  1  0  0  0  0
  2 15  1  0  0  0  0
  3  4  1  0  0  0  0
  3  5  2  0  0  0  0
  4  6  2  0  0  0  0
  5  7  1  0  0  0  0
  6 11  1  0  0  0  0
  7 11  2  0  0  0  0
  8 10  1  0  0  0  0
  8 16  2  0  0  0  0
  9 16  1  0  0  0  0
  9 17  2  0  0  0  0
 10 12  2  0  0  0  0
 10 13  1  0  0  0  0
 11 15  1  0  0  0  0
 12 17  1  0  0  0  0
 12 18  1  0  0  0  0
 13 14  1  0  0  0  0
 14 18  1  0  0  0  0
  3 19  1  0  0  0  0
  4 20  1  0  0  0  0
  5 21  1  0  0  0  0
  6 22  1  0  0  0  0
  7 23  1  0  0  0  0
  8 24  1  0  0  0  0
 13 25  1  0  0  0  0
 13 26  1  0  0  0  0
 14 27  1  0  0  0  0
 14 28  1  0  0  0  0
 15 29  1  0  0  0  0
 15 30  1  0  0  0  0
 18 31  1  0  0  0  0
M  END
> <FRED Chemgauss4 score>
-6.012544

$$$$
MOL0147_3
  -OEChem-06022418023D

 20 21  0     0  0  0  0  0  0999 V2000
   -2.7608   14.5404   -1.0914 C   0  0  0  0  0  0  0  0  0  0  0  0
   -3.6729   14.8602   -0.1207 C   0  0  0  0  0  0  0  0  0  0  0  0
   -3.2026   15.0849    1.1631 C   0  0  0  0  0  0  0  0  0  0  0  0
   -1.0886   14.6958    0.4591 C   0  0  0  0  0  0  0  0  0  0  0  0
    0.3266   14.6050    0.7625 C   0  0  0  0  0  0  0  0  0  0  0  0
   -5.1536   14.9782   -0.1705 C   0  0  0  0  0  0  0  0  0  0  0  0
   -5.4591   15.5688    1.2231 C   0  0  0  0  0  0  0  0  0  0  0  0
   -1.4414   14.4542   -0.8260 N   0  0  0  0  0  0  0  0  0  0  0  0
   -1.9025   15.0091    1.4909 N   0  0  0  0  0  0  0  0  0  0  0  0
   -4.2642   15.3849    2.0295 N   0  0  0  0  0  0  0  0  0  0  0  0
    1.0954   15.7608    0.6374 N   0  0  0  0  0  0  0  0  0  0  0  0
    0.8520   13.5298    1.1084 O   0  0  0  0  0  0  0  0  0  0  0  0
   -3.0524   14.3382   -2.1149 H   0  0  0  0  0  0  0  0  0  0  0  0
   -5.4858   15.6480   -0.9689 H   0  0  0  0  0  0  0  0  0  0  0  0
   -5.6111   13.9905   -0.2872 H   0  0  0  0  0  0  0  0  0  0  0  0
   -5.6773   16.6402    1.1382 H   0  0  0  0  0  0  0  0  0  0  0  0
   -6.3277   15.0836    1.6797 H   0  0  0  0  0  0  0  0  0  0  0  0
   -4.1526   15.6486    2.9961 H   0  0  0  0  0  0  0  0  0  0  0  0
    0.6492   16.6222    0.3413 H   0  0  0  0  0  0  0  0  0  0  0  0
    2.0908   15.7615    0.8352 H   0  0  0  0  0  0  0  0  0  0  0  0
  1  2  1  0  0  0  0
  1  8  2  0  0  0  0
  2  3  2  0  0  0  0
  2  6  1  0  0  0  0
  3  9  1  0  0  0  0
  3 10  1  0  0  0  0
  4  5  1  0  0  0  0
  4  8  1  0  0  0  0
  4  9  2  0  0  0  0
  5 11  1  0  0  0  0
  5 12  2  0  0  0  0
  6  7  1  0  0  0  0
  7 10  1  0  0  0  0
  1 13  1  0  0  0  0
  6 14  1  0  0  0  0
  6 15  1  0  0  0  0
  7 16  1  0  0  0  0
  7 17  1  0  0  0  0
 10 18  1  0  0  0  0
 11 19  1  0  0  0  0
 11 20  1  0  0  0  0
M  END
> <FRED Chemgauss4 score>
-5.980350

$$$$
MOL0085_1
  -OEChem-06022418023D

 18 19  0     0  0  0  0  0  0999 V2000
    0.4692   13.3900   -2.4498 C   0  0  0  0  0  0  0  0  0  0  0  0
    2.4879   13.7104   -1.4565 C   0  0  0  0  0  0  0  0  0  0  0  0
    0.6266   14.5348   -3.2105 C   0  0  0  0  0  0  0  0  0  0  0  0
    1.8022   15.2453   -2.9972 C   0  0  0  0  0  0  0  0  0  0  0  0
   -0.4252   15.0249   -4.1574 C   0  0  0  0  0  0  0  0  0  0  0  0
    2.0690   16.4864   -3.8044 C   0  0  0  0  0  0  0  0  0  0  0  0
    0.7713   17.0595   -4.3631 C   0  0  0  0  0  0  0  0  0  0  0  0
    1.3846   12.9469   -1.5640 N   0  0  0  0  0  0  0  0  0  0  0  0
    2.7577   14.8456   -2.1290 N   0  0  0  0  0  0  0  0  0  0  0  0
    0.0633   16.0291   -5.0558 O   0  0  0  0  0  0  0  0  0  0  0  0
   -0.4242   12.7788   -2.5292 H   0  0  0  0  0  0  0  0  0  0  0  0
    3.2407   13.3754   -0.7533 H   0  0  0  0  0  0  0  0  0  0  0  0
   -0.7929   14.1970   -4.7725 H   0  0  0  0  0  0  0  0  0  0  0  0
   -1.2709   15.4395   -3.5967 H   0  0  0  0  0  0  0  0  0  0  0  0
    2.5805   17.2372   -3.1931 H   0  0  0  0  0  0  0  0  0  0  0  0
    2.7317   16.2047   -4.6315 H   0  0  0  0  0  0  0  0  0  0  0  0
    0.1347   17.4805   -3.5750 H   0  0  0  0  0  0  0  0  0  0  0  0
    0.9922   17.8594   -5.0769 H   0  0  0  0  0  0  0  0  0  0  0  0
  1  3  1  0  0  0  0
  1  8  2  0  0  0  0
  2  8  1  0  0  0  0
  2  9  2  0  0  0  0
  3  4  2  0  0  0  0
  3  5  1  0  0  0  0
  4  6  1  0  0  0  0
  4  9  1  0  0  0  0
  5 10  1  0  0  0  0
  6  7  1  0  0  0  0
  7 10  1  0  0  0  0
  1 11  1  0  0  0  0
  2 12  1  0  0  0  0
  5 13  1  0  0  0  0
  5 14  1  0  0  0  0
  6 15  1  0  0  0  0
  6 16  1  0  0  0  0
  7 17  1  0  0  0  0
  7 18  1  0  0  0  0
M  END
> <FRED Chemgauss4 score>
-5.979489

$$$$
MOL0074_1
  -OEChem-06022418023D

 12 13  0     0  0  0  0  0  0999 V2000
    2.4518   14.6415   -3.4907 C   0  0  0  0  0  0  0  0  0  0  0  0
    2.4636   14.0161   -1.2750 C   0  0  0  0  0  0  0  0  0  0  0  0
    0.3977   11.5618   -4.3470 C   0  0  0  0  0  0  0  0  0  0  0  0
    1.7031   13.5029   -3.7488 C   0  0  0  0  0  0  0  0  0  0  0  0
    1.3638   12.6484   -2.6985 C   0  0  0  0  0  0  0  0  0  0  0  0
    2.8369   14.8975   -2.2239 N   0  0  0  0  0  0  0  0  0  0  0  0
    1.7428   12.8898   -1.4165 N   0  0  0  0  0  0  0  0  0  0  0  0
    0.6159   11.5401   -3.0517 N   0  0  0  0  0  0  0  0  0  0  0  0
    1.0592   12.8838   -5.2138 S   0  0  0  0  0  0  0  0  0  0  0  0
    2.7510   15.3487   -4.2530 H   0  0  0  0  0  0  0  0  0  0  0  0
    2.7865   14.2464   -0.2657 H   0  0  0  0  0  0  0  0  0  0  0  0
   -0.1694   10.7883   -4.8463 H   0  0  0  0  0  0  0  0  0  0  0  0
  1  4  1  0  0  0  0
  1  6  2  0  0  0  0
  2  6  1  0  0  0  0
  2  7  2  0  0  0  0
  3  8  2  0  0  0  0
  3  9  1  0  0  0  0
  4  5  2  0  0  0  0
  4  9  1  0  0  0  0
  5  7  1  0  0  0  0
  5  8  1  0  0  0  0
  1 10  1  0  0  0  0
  2 11  1  0  0  0  0
  3 12  1  0  0  0  0
M  END
> <FRED Chemgauss4 score>
-5.966123

$$$$
MOL0195_1
  -OEChem-06022418023D

 22 23  0     1  0  0  0  0  0999 V2000
   -2.9658   14.9880    1.6149 C   0  0  0  0  0  0  0  0  0  0  0  0
   -0.8535   14.7477    0.8233 C   0  0  0  0  0  0  0  0  0  0  0  0
   -3.4963   14.7991    0.3495 C   0  0  0  0  0  0  0  0  0  0  0  0
   -2.5762   14.6088   -0.6781 C   0  0  0  0  0  0  0  0  0  0  0  0
   -4.9702   14.8558    0.0888 C   0  0  0  0  0  0  0  0  0  0  0  0
   -5.3356   14.2469   -1.2650 C   0  0  0  0  0  0  0  0  0  0  0  0
   -3.0643   14.3506   -2.0926 C   0  0  2  0  0  0  0  0  0  0  0  0
   -2.1984   15.0641   -3.1347 C   0  0  0  0  0  0  0  0  0  0  0  0
   -1.6460   14.9665    1.8870 N   0  0  0  0  0  0  0  0  0  0  0  0
   -1.2422   14.5596   -0.4523 N   0  0  0  0  0  0  0  0  0  0  0  0
   -4.4589   14.7781   -2.3077 N   0  0  0  0  0  0  0  0  0  0  0  0
   -3.6064   15.1658    2.4729 H   0  0  0  0  0  0  0  0  0  0  0  0
    0.2127   14.7184    1.0116 H   0  0  0  0  0  0  0  0  0  0  0  0
   -5.5122   14.3212    0.8776 H   0  0  0  0  0  0  0  0  0  0  0  0
   -5.2858   15.9064    0.1181 H   0  0  0  0  0  0  0  0  0  0  0  0
   -5.2663   13.1521   -1.2315 H   0  0  0  0  0  0  0  0  0  0  0  0
   -6.3763   14.4943   -1.5015 H   0  0  0  0  0  0  0  0  0  0  0  0
   -2.9972   13.2688   -2.2684 H   0  0  0  0  0  0  0  0  0  0  0  0
   -2.2505   16.1390   -2.9785 H   0  0  0  0  0  0  0  0  0  0  0  0
   -2.5592   14.8277   -4.1328 H   0  0  0  0  0  0  0  0  0  0  0  0
   -1.1661   14.7360   -3.0380 H   0  0  0  0  0  0  0  0  0  0  0  0
   -4.7750   14.4476   -3.2192 H   0  0  0  0  0  0  0  0  0  0  0  0
  1  3  1  0  0  0  0
  1  9  2  0  0  0  0
  2  9  1  0  0  0  0
  2 10  2  0  0  0  0
  3  4  2  0  0  0  0
  3  5  1  0  0  0  0
  4  7  1  0  0  0  0
  4 10  1  0  0  0  0
  5  6  1  0  0  0  0
  6 11  1  0  0  0  0
  7  8  1  0  0  0  0
  7 11  1  0  0  0  0
  1 12  1  0  0  0  0
  2 13  1  0  0  0  0
  5 14  1  0  0  0  0
  5 15  1  0  0  0  0
  6 16  1  0  0  0  0
  6 17  1  0  0  0  0
  7 18  1  0  0  0  0
  8 19  1  0  0  0  0
  8 20  1  0  0  0  0
  8 21  1  0  0  0  0
 11 22  1  0  0  0  0
M  END
> <FRED Chemgauss4 score>
-5.962446

$$$$
MOL0173_1
  -OEChem-06022418023D

 28 30  0     0  0  0  0  0  0999 V2000
   -1.7457   14.1267   -2.0176 C   0  0  0  0  0  0  0  0  0  0  0  0
   -2.9110   14.0131   -1.7491 C   0  0  0  0  0  0  0  0  0  0  0  0
    1.2437   15.1995   -3.6605 C   0  0  0  0  0  0  0  0  0  0  0  0
   -0.3656   14.2634   -2.3344 C   0  0  0  0  0  0  0  0  0  0  0  0
    2.2025   14.5299   -2.9472 C   0  0  0  0  0  0  0  0  0  0  0  0
    1.7873   13.7229   -1.9002 C   0  0  0  0  0  0  0  0  0  0  0  0
    3.6846   14.5339   -3.0572 C   0  0  0  0  0  0  0  0  0  0  0  0
   -6.0279   14.7204    0.3914 C   0  0  0  0  0  0  0  0  0  0  0  0
   -4.6836   14.6408    1.0595 C   0  0  0  0  0  0  0  0  0  0  0  0
    4.0653   13.3969   -2.0842 C   0  0  0  0  0  0  0  0  0  0  0  0
   -4.7748   14.9221   -0.4147 C   0  0  0  0  0  0  0  0  0  0  0  0
   -4.3351   13.8731   -1.4219 C   0  0  0  0  0  0  0  0  0  0  0  0
   -0.0686   15.0793   -3.3739 N   0  0  0  0  0  0  0  0  0  0  0  0
    0.4969   13.5663   -1.5629 N   0  0  0  0  0  0  0  0  0  0  0  0
    2.8908   13.1267   -1.2721 N   0  0  0  0  0  0  0  0  0  0  0  0
    1.4908   15.8583   -4.4840 H   0  0  0  0  0  0  0  0  0  0  0  0
    4.0223   14.3166   -4.0744 H   0  0  0  0  0  0  0  0  0  0  0  0
    4.0897   15.4926   -2.7182 H   0  0  0  0  0  0  0  0  0  0  0  0
   -6.5830   13.7990    0.2656 H   0  0  0  0  0  0  0  0  0  0  0  0
   -6.6413   15.5895    0.5950 H   0  0  0  0  0  0  0  0  0  0  0  0
   -4.3953   15.4567    1.7110 H   0  0  0  0  0  0  0  0  0  0  0  0
   -4.3384   13.6661    1.3815 H   0  0  0  0  0  0  0  0  0  0  0  0
    4.3328   12.4944   -2.6467 H   0  0  0  0  0  0  0  0  0  0  0  0
    4.9242   13.6734   -1.4642 H   0  0  0  0  0  0  0  0  0  0  0  0
   -4.5493   15.9274   -0.7498 H   0  0  0  0  0  0  0  0  0  0  0  0
   -4.9361   13.9693   -2.3330 H   0  0  0  0  0  0  0  0  0  0  0  0
   -4.5255   12.8744   -1.0135 H   0  0  0  0  0  0  0  0  0  0  0  0
    2.8252   12.4502   -0.5277 H   0  0  0  0  0  0  0  0  0  0  0  0
  1  2  3  0  0  0  0
  1  4  1  0  0  0  0
  2 12  1  0  0  0  0
  3  5  1  0  0  0  0
  3 13  2  0  0  0  0
  4 13  1  0  0  0  0
  4 14  2  0  0  0  0
  5  6  2  0  0  0  0
  5  7  1  0  0  0  0
  6 14  1  0  0  0  0
  6 15  1  0  0  0  0
  7 10  1  0  0  0  0
  8  9  1  0  0  0  0
  8 11  1  0  0  0  0
  9 11  1  0  0  0  0
 10 15  1  0  0  0  0
 11 12  1  0  0  0  0
  3 16  1  0  0  0  0
  7 17  1  0  0  0  0
  7 18  1  0  0  0  0
  8 19  1  0  0  0  0
  8 20  1  0  0  0  0
  9 21  1  0  0  0  0
  9 22  1  0  0  0  0
 10 23  1  0  0  0  0
 10 24  1  0  0  0  0
 11 25  1  0  0  0  0
 12 26  1  0  0  0  0
 12 27  1  0  0  0  0
 15 28  1  0  0  0  0
M  END
> <FRED Chemgauss4 score>
-5.959072

$$$$
MOL0120_1
  -OEChem-06022418023D

 25 27  0     0  0  0  0  0  0999 V2000
   -4.0968   13.6445   -2.4000 C   0  0  0  0  0  0  0  0  0  0  0  0
   -3.3136   14.9793   -0.5590 C   0  0  0  0  0  0  0  0  0  0  0  0
   -5.3657   13.7265   -1.8494 C   0  0  0  0  0  0  0  0  0  0  0  0
   -4.6175   15.0017   -0.0909 C   0  0  0  0  0  0  0  0  0  0  0  0
   -0.3518   14.0777   -4.0913 C   0  0  0  0  0  0  0  0  0  0  0  0
   -3.0567   14.2856   -1.7363 C   0  0  0  0  0  0  0  0  0  0  0  0
    0.7383   14.1205   -3.2629 C   0  0  0  0  0  0  0  0  0  0  0  0
    0.5140   14.2297   -1.9000 C   0  0  0  0  0  0  0  0  0  0  0  0
   -1.7181   14.2302   -2.2652 C   0  0  0  0  0  0  0  0  0  0  0  0
    2.1943   14.1146   -3.5611 C   0  0  0  0  0  0  0  0  0  0  0  0
    2.7945   13.9684   -2.1460 C   0  0  0  0  0  0  0  0  0  0  0  0
   -5.6539   14.3910   -0.7079 N   0  0  0  0  0  0  0  0  0  0  0  0
   -1.6111   14.1273   -3.6115 N   0  0  0  0  0  0  0  0  0  0  0  0
   -0.7151   14.2885   -1.3621 N   0  0  0  0  0  0  0  0  0  0  0  0
    1.7311   14.2742   -1.2039 N   0  0  0  0  0  0  0  0  0  0  0  0
   -3.9354   13.0925   -3.3203 H   0  0  0  0  0  0  0  0  0  0  0  0
   -2.5274   15.4920   -0.0141 H   0  0  0  0  0  0  0  0  0  0  0  0
   -6.2108   13.2421   -2.3276 H   0  0  0  0  0  0  0  0  0  0  0  0
   -4.8704   15.5299    0.8224 H   0  0  0  0  0  0  0  0  0  0  0  0
   -0.2570   14.0053   -5.1678 H   0  0  0  0  0  0  0  0  0  0  0  0
    2.4793   13.2762   -4.2030 H   0  0  0  0  0  0  0  0  0  0  0  0
    2.4935   15.0627   -4.0190 H   0  0  0  0  0  0  0  0  0  0  0  0
    3.1353   12.9384   -1.9864 H   0  0  0  0  0  0  0  0  0  0  0  0
    3.6539   14.6321   -2.0070 H   0  0  0  0  0  0  0  0  0  0  0  0
    1.8121   14.2871   -0.1992 H   0  0  0  0  0  0  0  0  0  0  0  0
  1  3  1  0  0  0  0
  1  6  2  0  0  0  0
  2  4  2  0  0  0  0
  2  6  1  0  0  0  0
  3 12  2  0  0  0  0
  4 12  1  0  0  0  0
  5  7  1  0  0  0  0
  5 13  2  0  0  0  0
  6  9  1  0  0  0  0
  7  8  2  0  0  0  0
  7 10  1  0  0  0  0
  8 14  1  0  0  0  0
  8 15  1  0  0  0  0
  9 13  1  0  0  0  0
  9 14  2  0  0  0  0
 10 11  1  0  0  0  0
 11 15  1  0  0  0  0
  1 16  1  0  0  0  0
  2 17  1  0  0  0  0
  3 18  1  0  0  0  0
  4 19  1  0  0  0  0
  5 20  1  0  0  0  0
 10 21  1  0  0  0  0
 10 22  1  0  0  0  0
 11 23  1  0  0  0  0
 11 24  1  0  0  0  0
 15 25  1  0  0  0  0
M  END
> <FRED Chemgauss4 score>
-5.953964

$$$$
MOL0220_1
  -OEChem-06022418023D

 23 24  0     0  0  0  0  0  0999 V2000
   -3.4212   15.0033    1.4920 C   0  0  0  0  0  0  0  0  0  0  0  0
   -4.0909   14.9102    0.2840 C   0  0  0  0  0  0  0  0  0  0  0  0
   -3.2919   14.6957   -0.8343 C   0  0  0  0  0  0  0  0  0  0  0  0
   -1.4147   14.7290    0.4627 C   0  0  0  0  0  0  0  0  0  0  0  0
   -5.5872   14.9608    0.1904 C   0  0  0  0  0  0  0  0  0  0  0  0
   -3.9247   14.6083   -2.1980 C   0  0  0  0  0  0  0  0  0  0  0  0
   -5.4248   14.3121   -2.1244 C   0  0  0  0  0  0  0  0  0  0  0  0
    0.6596   14.4386   -0.6639 C   0  0  0  0  0  0  0  0  0  0  0  0
   -2.0809   14.9210    1.6158 N   0  0  0  0  0  0  0  0  0  0  0  0
   -1.9438   14.6119   -0.7700 N   0  0  0  0  0  0  0  0  0  0  0  0
   -6.0873   15.2057   -1.1698 N   0  0  0  0  0  0  0  0  0  0  0  0
   -0.0450   14.6414    0.5526 O   0  0  0  0  0  0  0  0  0  0  0  0
   -3.9579   15.1535    2.4234 H   0  0  0  0  0  0  0  0  0  0  0  0
   -6.0118   14.0116    0.5422 H   0  0  0  0  0  0  0  0  0  0  0  0
   -5.9608   15.7479    0.8593 H   0  0  0  0  0  0  0  0  0  0  0  0
   -3.7658   15.5476   -2.7383 H   0  0  0  0  0  0  0  0  0  0  0  0
   -3.4172   13.8125   -2.7561 H   0  0  0  0  0  0  0  0  0  0  0  0
   -5.8911   14.4119   -3.1156 H   0  0  0  0  0  0  0  0  0  0  0  0
   -5.5785   13.2705   -1.8133 H   0  0  0  0  0  0  0  0  0  0  0  0
    1.7320   14.3867   -0.4604 H   0  0  0  0  0  0  0  0  0  0  0  0
    0.4477   15.2622   -1.3503 H   0  0  0  0  0  0  0  0  0  0  0  0
    0.3303   13.4987   -1.1130 H   0  0  0  0  0  0  0  0  0  0  0  0
   -7.0912   15.0345   -1.1930 H   0  0  0  0  0  0  0  0  0  0  0  0
  1  2  1  0  0  0  0
  1  9  2  0  0  0  0
  2  3  2  0  0  0  0
  2  5  1  0  0  0  0
  3  6  1  0  0  0  0
  3 10  1  0  0  0  0
  4  9  1  0  0  0  0
  4 10  2  0  0  0  0
  4 12  1  0  0  0  0
  5 11  1  0  0  0  0
  6  7  1  0  0  0  0
  7 11  1  0  0  0  0
  8 12  1  0  0  0  0
  1 13  1  0  0  0  0
  5 14  1  0  0  0  0
  5 15  1  0  0  0  0
  6 16  1  0  0  0  0
  6 17  1  0  0  0  0
  7 18  1  0  0  0  0
  7 19  1  0  0  0  0
  8 20  1  0  0  0  0
  8 21  1  0  0  0  0
  8 22  1  0  0  0  0
 11 23  1  0  0  0  0
M  END
> <FRED Chemgauss4 score>
-5.931708

$$$$
MOL0093_2
  -OEChem-06022418023D

 20 21  0     0  0  0  0  0  0999 V2000
   -3.1552   15.1107    1.2693 C   0  0  0  0  0  0  0  0  0  0  0  0
   -3.6058   14.8079    0.0117 C   0  0  0  0  0  0  0  0  0  0  0  0
   -2.6638   14.6013   -0.9831 C   0  0  0  0  0  0  0  0  0  0  0  0
   -1.0044   14.9742    0.5079 C   0  0  0  0  0  0  0  0  0  0  0  0
   -4.9842   14.6931   -0.5323 C   0  0  0  0  0  0  0  0  0  0  0  0
   -4.7092   14.1244   -1.9412 C   0  0  0  0  0  0  0  0  0  0  0  0
    0.4553   15.0685    0.8008 C   0  0  0  0  0  0  0  0  0  0  0  0
   -1.8392   15.1975    1.5508 N   0  0  0  0  0  0  0  0  0  0  0  0
   -1.3406   14.6785   -0.7666 N   0  0  0  0  0  0  0  0  0  0  0  0
   -3.2930   14.3171   -2.2042 N   0  0  0  0  0  0  0  0  0  0  0  0
    1.0116   13.7607    0.8537 O   0  0  0  0  0  0  0  0  0  0  0  0
   -3.8301   15.2979    2.0955 H   0  0  0  0  0  0  0  0  0  0  0  0
   -5.6040   14.0121    0.0577 H   0  0  0  0  0  0  0  0  0  0  0  0
   -5.4541   15.6795   -0.5921 H   0  0  0  0  0  0  0  0  0  0  0  0
   -4.9398   13.0527   -1.9656 H   0  0  0  0  0  0  0  0  0  0  0  0
   -5.3262   14.6188   -2.6980 H   0  0  0  0  0  0  0  0  0  0  0  0
    0.9827   15.6433    0.0274 H   0  0  0  0  0  0  0  0  0  0  0  0
    0.6353   15.5681    1.7624 H   0  0  0  0  0  0  0  0  0  0  0  0
   -2.8064   14.0694   -3.0515 H   0  0  0  0  0  0  0  0  0  0  0  0
    1.9571   13.8670    1.0454 H   0  0  0  0  0  0  0  0  0  0  0  0
  1  2  1  0  0  0  0
  1  8  2  0  0  0  0
  2  3  2  0  0  0  0
  2  5  1  0  0  0  0
  3  9  1  0  0  0  0
  3 10  1  0  0  0  0
  4  7  1  0  0  0  0
  4  8  1  0  0  0  0
  4  9  2  0  0  0  0
  5  6  1  0  0  0  0
  6 10  1  0  0  0  0
  7 11  1  0  0  0  0
  1 12  1  0  0  0  0
  5 13  1  0  0  0  0
  5 14  1  0  0  0  0
  6 15  1  0  0  0  0
  6 16  1  0  0  0  0
  7 17  1  0  0  0  0
  7 18  1  0  0  0  0
 10 19  1  0  0  0  0
 11 20  1  0  0  0  0
M  END
> <FRED Chemgauss4 score>
-5.842498

$$$$
MOL0161_1
  -OEChem-06022418023D

 17 18  0     0  0  0  0  0  0999 V2000
    0.5938   13.3490   -3.6821 C   0  0  0  0  0  0  0  0  0  0  0  0
    1.7041   12.7215   -3.1280 C   0  0  0  0  0  0  0  0  0  0  0  0
    0.6228   14.7246   -3.8008 C   0  0  0  0  0  0  0  0  0  0  0  0
    1.7337   15.4408   -3.3655 C   0  0  0  0  0  0  0  0  0  0  0  0
    2.7764   13.5108   -2.7194 C   0  0  0  0  0  0  0  0  0  0  0  0
   -0.4228   15.6501   -4.3264 C   0  0  0  0  0  0  0  0  0  0  0  0
    0.3238   17.0006   -4.3296 C   0  0  0  0  0  0  0  0  0  0  0  0
    2.8207   14.8620   -2.8220 N   0  0  0  0  0  0  0  0  0  0  0  0
    1.5468   16.8142   -3.5698 N   0  0  0  0  0  0  0  0  0  0  0  0
    4.1768   12.7996   -2.0242 Cl  0  0  0  0  0  0  0  0  0  0  0  0
   -0.2647   12.7726   -4.0079 H   0  0  0  0  0  0  0  0  0  0  0  0
    1.7216   11.6420   -3.0193 H   0  0  0  0  0  0  0  0  0  0  0  0
   -0.7435   15.3705   -5.3340 H   0  0  0  0  0  0  0  0  0  0  0  0
   -1.2814   15.6779   -3.6480 H   0  0  0  0  0  0  0  0  0  0  0  0
    0.5735   17.2903   -5.3570 H   0  0  0  0  0  0  0  0  0  0  0  0
   -0.2934   17.7956   -3.8984 H   0  0  0  0  0  0  0  0  0  0  0  0
    2.2401   17.5200   -3.3772 H   0  0  0  0  0  0  0  0  0  0  0  0
  1  2  2  0  0  0  0
  1  3  1  0  0  0  0
  2  5  1  0  0  0  0
  3  4  2  0  0  0  0
  3  6  1  0  0  0  0
  4  8  1  0  0  0  0
  4  9  1  0  0  0  0
  5  8  2  0  0  0  0
  5 10  1  0  0  0  0
  6  7  1  0  0  0  0
  7  9  1  0  0  0  0
  1 11  1  0  0  0  0
  2 12  1  0  0  0  0
  6 13  1  0  0  0  0
  6 14  1  0  0  0  0
  7 15  1  0  0  0  0
  7 16  1  0  0  0  0
  9 17  1  0  0  0  0
M  END
> <FRED Chemgauss4 score>
-5.832003

$$$$
MOL0051_1
  -OEChem-06022418023D

 16 17  0     0  0  0  0  0  0999 V2000
   -1.9727   14.6030   -0.9606 C   0  0  0  0  0  0  0  0  0  0  0  0
   -3.0002   15.0780   -0.1891 C   0  0  0  0  0  0  0  0  0  0  0  0
   -2.7168   15.4405    1.1178 C   0  0  0  0  0  0  0  0  0  0  0  0
   -0.5478   14.8806    0.8050 C   0  0  0  0  0  0  0  0  0  0  0  0
   -4.4466   15.2497   -0.4844 C   0  0  0  0  0  0  0  0  0  0  0  0
   -4.9233   16.0205    0.7657 C   0  0  0  0  0  0  0  0  0  0  0  0
   -0.7162   14.4962   -0.4827 N   0  0  0  0  0  0  0  0  0  0  0  0
   -1.4880   15.3525    1.6525 N   0  0  0  0  0  0  0  0  0  0  0  0
   -3.8772   15.8890    1.7658 N   0  0  0  0  0  0  0  0  0  0  0  0
    0.6993   14.7789    1.2963 F   0  0  0  0  0  0  0  0  0  0  0  0
   -2.1182   14.2885   -1.9867 H   0  0  0  0  0  0  0  0  0  0  0  0
   -4.6142   15.8286   -1.3970 H   0  0  0  0  0  0  0  0  0  0  0  0
   -4.9393   14.2749   -0.5568 H   0  0  0  0  0  0  0  0  0  0  0  0
   -5.0623   17.0810    0.5235 H   0  0  0  0  0  0  0  0  0  0  0  0
   -5.8783   15.6318    1.1336 H   0  0  0  0  0  0  0  0  0  0  0  0
   -3.8979   16.2646    2.7011 H   0  0  0  0  0  0  0  0  0  0  0  0
  1  2  1  0  0  0  0
  1  7  2  0  0  0  0
  2  3  2  0  0  0  0
  2  5  1  0  0  0  0
  3  8  1  0  0  0  0
  3  9  1  0  0  0  0
  4  7  1  0  0  0  0
  4  8  2  0  0  0  0
  4 10  1  0  0  0  0
  5  6  1  0  0  0  0
  6  9  1  0  0  0  0
  1 11  1  0  0  0  0
  5 12  1  0  0  0  0
  5 13  1  0  0  0  0
  6 14  1  0  0  0  0
  6 15  1  0  0  0  0
  9 16  1  0  0  0  0
M  END
> <FRED Chemgauss4 score>
-5.831471

$$$$
MOL0040_1
  -OEChem-06022418023D

 15 16  0     0  0  0  0  0  0999 V2000
   -3.1000   14.4634   -2.8827 C   0  0  0  0  0  0  0  0  0  0  0  0
   -1.8704   14.5559   -2.2414 C   0  0  0  0  0  0  0  0  0  0  0  0
   -4.2333   14.5421   -2.1020 C   0  0  0  0  0  0  0  0  0  0  0  0
   -2.8784   14.9542    1.2000 C   0  0  0  0  0  0  0  0  0  0  0  0
   -0.6196   14.9719    1.0861 C   0  0  0  0  0  0  0  0  0  0  0  0
   -1.7894   14.7222   -0.8636 C   0  0  0  0  0  0  0  0  0  0  0  0
   -3.0013   14.7894   -0.1657 C   0  0  0  0  0  0  0  0  0  0  0  0
   -1.7083   15.0497    1.8631 N   0  0  0  0  0  0  0  0  0  0  0  0
   -4.2080   14.7023   -0.7623 N   0  0  0  0  0  0  0  0  0  0  0  0
   -0.5958   14.8122   -0.2494 N   0  0  0  0  0  0  0  0  0  0  0  0
   -3.1631   14.3344   -3.9568 H   0  0  0  0  0  0  0  0  0  0  0  0
   -0.9612   14.4966   -2.8364 H   0  0  0  0  0  0  0  0  0  0  0  0
   -5.2223   14.4772   -2.5429 H   0  0  0  0  0  0  0  0  0  0  0  0
   -3.7590   15.0175    1.8332 H   0  0  0  0  0  0  0  0  0  0  0  0
    0.3400   15.0446    1.5820 H   0  0  0  0  0  0  0  0  0  0  0  0
  1  2  2  0  0  0  0
  1  3  1  0  0  0  0
  2  6  1  0  0  0  0
  3  9  2  0  0  0  0
  4  7  1  0  0  0  0
  4  8  2  0  0  0  0
  5  8  1  0  0  0  0
  5 10  2  0  0  0  0
  6  7  2  0  0  0  0
  6 10  1  0  0  0  0
  7  9  1  0  0  0  0
  1 11  1  0  0  0  0
  2 12  1  0  0  0  0
  3 13  1  0  0  0  0
  4 14  1  0  0  0  0
  5 15  1  0  0  0  0
M  END
> <FRED Chemgauss4 score>
-5.820532

$$$$
MOL0105_1
  -OEChem-06022418023D

 19 20  0     1  0  0  0  0  0999 V2000
    0.0044   13.4451   -2.1737 C   0  0  0  0  0  0  0  0  0  0  0  0
    1.9781   14.0421   -1.1741 C   0  0  0  0  0  0  0  0  0  0  0  0
    0.1147   14.5180   -3.0170 C   0  0  0  0  0  0  0  0  0  0  0  0
    1.2264   15.3295   -2.8578 C   0  0  0  0  0  0  0  0  0  0  0  0
   -0.7975   15.0226   -4.0783 C   0  0  0  0  0  0  0  0  0  0  0  0
    0.1517   15.9613   -4.8440 C   0  0  0  0  0  0  0  0  0  0  0  0
    1.1588   16.5006   -3.8048 C   0  0  2  0  0  0  0  0  0  0  0  0
    0.9374   13.1750   -1.2352 N   0  0  0  0  0  0  0  0  0  0  0  0
    2.1835   15.1352   -1.9388 N   0  0  0  0  0  0  0  0  0  0  0  0
    2.4297   16.8453   -4.4182 N   0  0  0  0  0  0  0  0  0  0  0  0
   -0.8361   12.7628   -2.2143 H   0  0  0  0  0  0  0  0  0  0  0  0
    2.7292   13.8339   -0.4213 H   0  0  0  0  0  0  0  0  0  0  0  0
   -1.1769   14.2254   -4.7234 H   0  0  0  0  0  0  0  0  0  0  0  0
   -1.6302   15.5774   -3.6343 H   0  0  0  0  0  0  0  0  0  0  0  0
    0.6740   15.3764   -5.6159 H   0  0  0  0  0  0  0  0  0  0  0  0
   -0.3850   16.7639   -5.3609 H   0  0  0  0  0  0  0  0  0  0  0  0
    0.7360   17.3638   -3.2774 H   0  0  0  0  0  0  0  0  0  0  0  0
    3.1363   16.2563   -4.0392 H   0  0  0  0  0  0  0  0  0  0  0  0
    2.3560   16.7074   -5.4008 H   0  0  0  0  0  0  0  0  0  0  0  0
  1  3  1  0  0  0  0
  1  8  2  0  0  0  0
  2  8  1  0  0  0  0
  2  9  2  0  0  0  0
  3  4  2  0  0  0  0
  3  5  1  0  0  0  0
  4  7  1  0  0  0  0
  4  9  1  0  0  0  0
  5  6  1  0  0  0  0
  6  7  1  0  0  0  0
  7 10  1  0  0  0  0
  1 11  1  0  0  0  0
  2 12  1  0  0  0  0
  5 13  1  0  0  0  0
  5 14  1  0  0  0  0
  6 15  1  0  0  0  0
  6 16  1  0  0  0  0
  7 17  1  0  0  0  0
 10 18  1  0  0  0  0
 10 19  1  0  0  0  0
M  END
> <FRED Chemgauss4 score>
-5.816742

$$$$
MOL0000_1
  -OEChem-06022418023D

 19 20  0     0  0  0  0  0  0999 V2000
   -2.8254   15.0175    1.3345 C   0  0  0  0  0  0  0  0  0  0  0  0
   -0.6333   14.9927    0.7384 C   0  0  0  0  0  0  0  0  0  0  0  0
   -3.2206   14.9360    0.0103 C   0  0  0  0  0  0  0  0  0  0  0  0
   -2.1919   14.8644   -0.9234 C   0  0  0  0  0  0  0  0  0  0  0  0
   -4.6631   14.8535   -0.3926 C   0  0  0  0  0  0  0  0  0  0  0  0
   -2.5200   14.8014   -2.3918 C   0  0  0  0  0  0  0  0  0  0  0  0
   -3.9647   14.3637   -2.6461 C   0  0  0  0  0  0  0  0  0  0  0  0
   -1.5375   15.0522    1.7330 N   0  0  0  0  0  0  0  0  0  0  0  0
   -0.8842   14.9019   -0.5815 N   0  0  0  0  0  0  0  0  0  0  0  0
   -4.8970   15.1329   -1.8165 N   0  0  0  0  0  0  0  0  0  0  0  0
   -3.5536   15.0605    2.1381 H   0  0  0  0  0  0  0  0  0  0  0  0
    0.4094   15.0210    1.0306 H   0  0  0  0  0  0  0  0  0  0  0  0
   -5.0494   13.8490   -0.1768 H   0  0  0  0  0  0  0  0  0  0  0  0
   -5.2453   15.5599    0.2144 H   0  0  0  0  0  0  0  0  0  0  0  0
   -2.3522   15.7824   -2.8491 H   0  0  0  0  0  0  0  0  0  0  0  0
   -1.8299   14.0913   -2.8626 H   0  0  0  0  0  0  0  0  0  0  0  0
   -4.2260   14.4798   -3.7082 H   0  0  0  0  0  0  0  0  0  0  0  0
   -4.0715   13.2957   -2.4157 H   0  0  0  0  0  0  0  0  0  0  0  0
   -5.8520   14.8729   -2.0574 H   0  0  0  0  0  0  0  0  0  0  0  0
  1  3  1  0  0  0  0
  1  8  2  0  0  0  0
  2  8  1  0  0  0  0
  2  9  2  0  0  0  0
  3  4  2  0  0  0  0
  3  5  1  0  0  0  0
  4  6  1  0  0  0  0
  4  9  1  0  0  0  0
  5 10  1  0  0  0  0
  6  7  1  0  0  0  0
  7 10  1  0  0  0  0
  1 11  1  0  0  0  0
  2 12  1  0  0  0  0
  5 13  1  0  0  0  0
  5 14  1  0  0  0  0
  6 15  1  0  0  0  0
  6 16  1  0  0  0  0
  7 17  1  0  0  0  0
  7 18  1  0  0  0  0
 10 19  1  0  0  0  0
M  END
> <FRED Chemgauss4 score>
-5.794934

$$$$
MOL0021_1
  -OEChem-06022418023D

 16 17  0     0  0  0  0  0  0999 V2000
    1.8496   15.1214   -3.4617 C   0  0  0  0  0  0  0  0  0  0  0  0
    2.6491   14.1801   -1.5294 C   0  0  0  0  0  0  0  0  0  0  0  0
    0.6885   14.4148   -3.3119 C   0  0  0  0  0  0  0  0  0  0  0  0
    0.5925   13.5973   -2.2073 C   0  0  0  0  0  0  0  0  0  0  0  0
   -0.5598   14.3572   -4.1086 C   0  0  0  0  0  0  0  0  0  0  0  0
   -0.7522   12.9378   -2.1982 C   0  0  0  0  0  0  0  0  0  0  0  0
    2.8632   15.0193   -2.5742 N   0  0  0  0  0  0  0  0  0  0  0  0
    1.5456   13.4438   -1.2796 N   0  0  0  0  0  0  0  0  0  0  0  0
   -1.3490   13.2518   -3.5163 N   0  0  0  0  0  0  0  0  0  0  0  0
    2.0142   15.7954   -4.2934 H   0  0  0  0  0  0  0  0  0  0  0  0
    3.4577   14.0936   -0.8132 H   0  0  0  0  0  0  0  0  0  0  0  0
   -1.1079   15.3011   -4.0194 H   0  0  0  0  0  0  0  0  0  0  0  0
   -0.3580   14.1447   -5.1622 H   0  0  0  0  0  0  0  0  0  0  0  0
   -0.6638   11.8555   -2.0703 H   0  0  0  0  0  0  0  0  0  0  0  0
   -1.3637   13.3586   -1.3933 H   0  0  0  0  0  0  0  0  0  0  0  0
   -2.3244   13.5264   -3.4104 H   0  0  0  0  0  0  0  0  0  0  0  0
  1  3  1  0  0  0  0
  1  7  2  0  0  0  0
  2  7  1  0  0  0  0
  2  8  2  0  0  0  0
  3  4  2  0  0  0  0
  3  5  1  0  0  0  0
  4  6  1  0  0  0  0
  4  8  1  0  0  0  0
  5  9  1  0  0  0  0
  6  9  1  0  0  0  0
  1 10  1  0  0  0  0
  2 11  1  0  0  0  0
  5 12  1  0  0  0  0
  5 13  1  0  0  0  0
  6 14  1  0  0  0  0
  6 15  1  0  0  0  0
  9 16  1  0  0  0  0
M  END
> <FRED Chemgauss4 score>
-5.773461

$$$$
MOL0045_1
  -OEChem-06022418023D

 22 23  0     1  0  0  0  0  0999 V2000
   -3.5543   15.2398    1.3015 C   0  0  0  0  0  0  0  0  0  0  0  0
   -1.3497   15.0031    0.8229 C   0  0  0  0  0  0  0  0  0  0  0  0
   -3.9002   14.9957   -0.0173 C   0  0  0  0  0  0  0  0  0  0  0  0
   -2.8431   14.7817   -0.8980 C   0  0  0  0  0  0  0  0  0  0  0  0
   -5.3235   15.0195   -0.4835 C   0  0  0  0  0  0  0  0  0  0  0  0
   -5.4889   14.3561   -1.8506 C   0  0  0  0  0  0  0  0  0  0  0  0
   -3.1252   14.4652   -2.3560 C   0  0  2  0  0  0  0  0  0  0  0  0
   -2.1292   15.1544   -3.2927 C   0  0  0  0  0  0  0  0  0  0  0  0
   -2.2857   15.2492    1.7559 N   0  0  0  0  0  0  0  0  0  0  0  0
   -1.5536   14.7613   -0.4862 N   0  0  0  0  0  0  0  0  0  0  0  0
   -4.4802   14.8628   -2.7800 N   0  0  0  0  0  0  0  0  0  0  0  0
   -4.3107   15.4396    2.0539 H   0  0  0  0  0  0  0  0  0  0  0  0
   -0.3201   14.9973    1.1593 H   0  0  0  0  0  0  0  0  0  0  0  0
   -5.9651   14.5056    0.2418 H   0  0  0  0  0  0  0  0  0  0  0  0
   -5.6511   16.0654   -0.5388 H   0  0  0  0  0  0  0  0  0  0  0  0
   -5.4136   13.2644   -1.7660 H   0  0  0  0  0  0  0  0  0  0  0  0
   -6.4887   14.5782   -2.2397 H   0  0  0  0  0  0  0  0  0  0  0  0
   -3.0228   13.3789   -2.4797 H   0  0  0  0  0  0  0  0  0  0  0  0
   -2.2140   16.2333   -3.1860 H   0  0  0  0  0  0  0  0  0  0  0  0
   -2.3438   14.8768   -4.3220 H   0  0  0  0  0  0  0  0  0  0  0  0
   -1.1173   14.8463   -3.0404 H   0  0  0  0  0  0  0  0  0  0  0  0
   -4.6617   14.4946   -3.7136 H   0  0  0  0  0  0  0  0  0  0  0  0
  1  3  1  0  0  0  0
  1  9  2  0  0  0  0
  2  9  1  0  0  0  0
  2 10  2  0  0  0  0
  3  4  2  0  0  0  0
  3  5  1  0  0  0  0
  4  7  1  0  0  0  0
  4 10  1  0  0  0  0
  5  6  1  0  0  0  0
  6 11  1  0  0  0  0
  7  8  1  0  0  0  0
  7 11  1  0  0  0  0
  1 12  1  0  0  0  0
  2 13  1  0  0  0  0
  5 14  1  0  0  0  0
  5 15  1  0  0  0  0
  6 16  1  0  0  0  0
  6 17  1  0  0  0  0
  7 18  1  0  0  0  0
  8 19  1  0  0  0  0
  8 20  1  0  0  0  0
  8 21  1  0  0  0  0
 11 22  1  0  0  0  0
M  END
> <FRED Chemgauss4 score>
-5.763535

$$$$
MOL0037_1
  -OEChem-06022418023D

 22 23  0     1  0  0  0  0  0999 V2000
    1.9711   15.4940   -3.0459 C   0  0  0  0  0  0  0  0  0  0  0  0
    2.6347   14.0508   -1.4261 C   0  0  0  0  0  0  0  0  0  0  0  0
    0.7932   14.7902   -3.2379 C   0  0  0  0  0  0  0  0  0  0  0  0
    0.6018   13.6861   -2.4114 C   0  0  0  0  0  0  0  0  0  0  0  0
   -0.2399   15.2305   -4.2312 C   0  0  0  0  0  0  0  0  0  0  0  0
   -1.7453   13.5728   -3.3546 C   0  0  0  0  0  0  0  0  0  0  0  0
   -0.6408   12.8312   -2.5774 C   0  0  2  0  0  0  0  0  0  0  0  0
   -1.1953   12.3466   -1.2353 C   0  0  0  0  0  0  0  0  0  0  0  0
    2.9156   15.1493   -2.1483 N   0  0  0  0  0  0  0  0  0  0  0  0
    1.5280   13.2880   -1.5080 N   0  0  0  0  0  0  0  0  0  0  0  0
   -1.1989   14.1742   -4.5717 N   0  0  0  0  0  0  0  0  0  0  0  0
    2.1963   16.3832   -3.6265 H   0  0  0  0  0  0  0  0  0  0  0  0
    3.3788   13.7449   -0.7009 H   0  0  0  0  0  0  0  0  0  0  0  0
   -0.7736   16.0993   -3.8269 H   0  0  0  0  0  0  0  0  0  0  0  0
    0.2557   15.5453   -5.1565 H   0  0  0  0  0  0  0  0  0  0  0  0
   -2.5315   12.8613   -3.6330 H   0  0  0  0  0  0  0  0  0  0  0  0
   -2.2201   14.3442   -2.7337 H   0  0  0  0  0  0  0  0  0  0  0  0
   -0.3393   11.9516   -3.1628 H   0  0  0  0  0  0  0  0  0  0  0  0
   -1.5014   13.2011   -0.6362 H   0  0  0  0  0  0  0  0  0  0  0  0
   -0.4278   11.7903   -0.7022 H   0  0  0  0  0  0  0  0  0  0  0  0
   -2.0540   11.7012   -1.4062 H   0  0  0  0  0  0  0  0  0  0  0  0
   -1.9563   14.5779   -5.1223 H   0  0  0  0  0  0  0  0  0  0  0  0
  1  3  1  0  0  0  0
  1  9  2  0  0  0  0
  2  9  1  0  0  0  0
  2 10  2  0  0  0  0
  3  4  2  0  0  0  0
  3  5  1  0  0  0  0
  4  7  1  0  0  0  0
  4 10  1  0  0  0  0
  5 11  1  0  0  0  0
  6  7  1  0  0  0  0
  6 11  1  0  0  0  0
  7  8  1  0  0  0  0
  1 12  1  0  0  0  0
  2 13  1  0  0  0  0
  5 14  1  0  0  0  0
  5 15  1  0  0  0  0
  6 16  1  0  0  0  0
  6 17  1  0  0  0  0
  7 18  1  0  0  0  0
  8 19  1  0  0  0  0
  8 20  1  0  0  0  0
  8 21  1  0  0  0  0
 11 22  1  0  0  0  0
M  END
> <FRED Chemgauss4 score>
-5.722816

$$$$
MOL0015_1
  -OEChem-06022418023D

 22 23  0     0  0  0  0  0  0999 V2000
   -3.2702   15.3177    1.2781 C   0  0  0  0  0  0  0  0  0  0  0  0
   -3.5749   15.1419   -0.0608 C   0  0  0  0  0  0  0  0  0  0  0  0
   -2.4868   14.9660   -0.9095 C   0  0  0  0  0  0  0  0  0  0  0  0
   -1.0442   15.1819    0.8453 C   0  0  0  0  0  0  0  0  0  0  0  0
   -4.9879   15.0692   -0.5591 C   0  0  0  0  0  0  0  0  0  0  0  0
   -2.7139   14.7952   -2.3884 C   0  0  0  0  0  0  0  0  0  0  0  0
   -4.1517   14.3806   -2.7113 C   0  0  0  0  0  0  0  0  0  0  0  0
    0.3602   15.2124    1.3459 C   0  0  0  0  0  0  0  0  0  0  0  0
   -2.0128   15.3470    1.7645 N   0  0  0  0  0  0  0  0  0  0  0  0
   -1.2056   14.9930   -0.4782 N   0  0  0  0  0  0  0  0  0  0  0  0
   -5.1123   15.2403   -2.0135 N   0  0  0  0  0  0  0  0  0  0  0  0
   -4.0508   15.4452    2.0215 H   0  0  0  0  0  0  0  0  0  0  0  0
   -5.4237   14.0973   -0.2936 H   0  0  0  0  0  0  0  0  0  0  0  0
   -5.5855   15.8394   -0.0530 H   0  0  0  0  0  0  0  0  0  0  0  0
   -2.4797   15.7312   -2.9068 H   0  0  0  0  0  0  0  0  0  0  0  0
   -2.0176   14.0295   -2.7512 H   0  0  0  0  0  0  0  0  0  0  0  0
   -4.3345   14.4193   -3.7951 H   0  0  0  0  0  0  0  0  0  0  0  0
   -4.3102   13.3375   -2.4076 H   0  0  0  0  0  0  0  0  0  0  0  0
    0.6889   14.2035    1.6239 H   0  0  0  0  0  0  0  0  0  0  0  0
    1.0466   15.6042    0.5840 H   0  0  0  0  0  0  0  0  0  0  0  0
    0.4561   15.8639    2.2245 H   0  0  0  0  0  0  0  0  0  0  0  0
   -6.0564   14.9877   -2.3007 H   0  0  0  0  0  0  0  0  0  0  0  0
  1  2  1  0  0  0  0
  1  9  2  0  0  0  0
  2  3  2  0  0  0  0
  2  5  1  0  0  0  0
  3  6  1  0  0  0  0
  3 10  1  0  0  0  0
  4  8  1  0  0  0  0
  4  9  1  0  0  0  0
  4 10  2  0  0  0  0
  5 11  1  0  0  0  0
  6  7  1  0  0  0  0
  7 11  1  0  0  0  0
  1 12  1  0  0  0  0
  5 13  1  0  0  0  0
  5 14  1  0  0  0  0
  6 15  1  0  0  0  0
  6 16  1  0  0  0  0
  7 17  1  0  0  0  0
  7 18  1  0  0  0  0
  8 19  1  0  0  0  0
  8 20  1  0  0  0  0
  8 21  1  0  0  0  0
 11 22  1  0  0  0  0
M  END
> <FRED Chemgauss4 score>
-5.719965

$$$$
MOL0185_1
  -OEChem-06022418023D

 22 23  0     0  0  0  0  0  0999 V2000
   -3.2597   14.8895    1.1969 C   0  0  0  0  0  0  0  0  0  0  0  0
   -1.3647   14.5474   -0.6645 C   0  0  0  0  0  0  0  0  0  0  0  0
   -1.0297   14.7820    0.6636 C   0  0  0  0  0  0  0  0  0  0  0  0
   -3.5903   14.6448   -0.1159 C   0  0  0  0  0  0  0  0  0  0  0  0
   -0.2934   14.3030   -1.6900 C   0  0  0  0  0  0  0  0  0  0  0  0
    0.4088   14.9137    1.0833 C   0  0  0  0  0  0  0  0  0  0  0  0
    1.0823   14.7850   -1.2249 C   0  0  0  0  0  0  0  0  0  0  0  0
   -5.0170   14.5690   -0.5346 C   0  0  0  0  0  0  0  0  0  0  0  0
   -1.9792   14.9664    1.6078 N   0  0  0  0  0  0  0  0  0  0  0  0
   -2.6526   14.4667   -1.0661 N   0  0  0  0  0  0  0  0  0  0  0  0
    1.3522   14.3122    0.1341 N   0  0  0  0  0  0  0  0  0  0  0  0
   -4.0082   15.0309    1.9678 H   0  0  0  0  0  0  0  0  0  0  0  0
   -0.2449   13.2335   -1.9246 H   0  0  0  0  0  0  0  0  0  0  0  0
   -0.5782   14.8309   -2.6085 H   0  0  0  0  0  0  0  0  0  0  0  0
    0.6582   15.9746    1.1979 H   0  0  0  0  0  0  0  0  0  0  0  0
    0.5329   14.4460    2.0674 H   0  0  0  0  0  0  0  0  0  0  0  0
    1.8679   14.4358   -1.9066 H   0  0  0  0  0  0  0  0  0  0  0  0
    1.1134   15.8795   -1.2436 H   0  0  0  0  0  0  0  0  0  0  0  0
   -5.3838   15.5602   -0.8316 H   0  0  0  0  0  0  0  0  0  0  0  0
   -5.1504   13.8828   -1.3822 H   0  0  0  0  0  0  0  0  0  0  0  0
   -5.6541   14.1938    0.2782 H   0  0  0  0  0  0  0  0  0  0  0  0
    2.3039   14.5696    0.3971 H   0  0  0  0  0  0  0  0  0  0  0  0
  1  4  1  0  0  0  0
  1  9  2  0  0  0  0
  2  3  2  0  0  0  0
  2  5  1  0  0  0  0
  2 10  1  0  0  0  0
  3  6  1  0  0  0  0
  3  9  1  0  0  0  0
  4  8  1  0  0  0  0
  4 10  2  0  0  0  0
  5  7  1  0  0  0  0
  6 11  1  0  0  0  0
  7 11  1  0  0  0  0
  1 12  1  0  0  0  0
  5 13  1  0  0  0  0
  5 14  1  0  0  0  0
  6 15  1  0  0  0  0
  6 16  1  0  0  0  0
  7 17  1  0  0  0  0
  7 18  1  0  0  0  0
  8 19  1  0  0  0  0
  8 20  1  0  0  0  0
  8 21  1  0  0  0  0
 11 22  1  0  0  0  0
M  END
> <FRED Chemgauss4 score>
-5.712888

$$$$
MOL0154_1
  -OEChem-06022418023D

 22 23  0     0  0  0  0  0  0999 V2000
    2.3656   14.1624   -1.6290 C   0  0  0  0  0  0  0  0  0  0  0  0
    0.4045   15.2144   -3.1344 C   0  0  0  0  0  0  0  0  0  0  0  0
    1.6706   15.7874   -3.0743 C   0  0  0  0  0  0  0  0  0  0  0  0
    0.2155   14.0849   -2.3573 C   0  0  0  0  0  0  0  0  0  0  0  0
   -0.6988   15.8328   -3.9377 C   0  0  0  0  0  0  0  0  0  0  0  0
    1.9882   17.0006   -3.9103 C   0  0  0  0  0  0  0  0  0  0  0  0
   -0.1743   16.8468   -4.9583 C   0  0  0  0  0  0  0  0  0  0  0  0
   -1.1115   13.4005   -2.3102 C   0  0  0  0  0  0  0  0  0  0  0  0
    2.6752   15.2686   -2.3322 N   0  0  0  0  0  0  0  0  0  0  0  0
    1.1786   13.5297   -1.5943 N   0  0  0  0  0  0  0  0  0  0  0  0
    0.7973   17.7466   -4.3339 N   0  0  0  0  0  0  0  0  0  0  0  0
    3.1584   13.7360   -1.0266 H   0  0  0  0  0  0  0  0  0  0  0  0
   -1.2603   15.0607   -4.4763 H   0  0  0  0  0  0  0  0  0  0  0  0
   -1.3900   16.3339   -3.2483 H   0  0  0  0  0  0  0  0  0  0  0  0
    2.6361   17.6752   -3.3393 H   0  0  0  0  0  0  0  0  0  0  0  0
    2.5543   16.6813   -4.7935 H   0  0  0  0  0  0  0  0  0  0  0  0
    0.2863   16.3339   -5.8123 H   0  0  0  0  0  0  0  0  0  0  0  0
   -1.0100   17.4317   -5.3578 H   0  0  0  0  0  0  0  0  0  0  0  0
   -1.1713   12.6343   -3.0917 H   0  0  0  0  0  0  0  0  0  0  0  0
   -1.2758   12.9214   -1.3372 H   0  0  0  0  0  0  0  0  0  0  0  0
   -1.9309   14.1148   -2.4570 H   0  0  0  0  0  0  0  0  0  0  0  0
    0.3710   18.1890   -3.5195 H   0  0  0  0  0  0  0  0  0  0  0  0
  1  9  1  0  0  0  0
  1 10  2  0  0  0  0
  2  3  1  0  0  0  0
  2  4  2  0  0  0  0
  2  5  1  0  0  0  0
  3  6  1  0  0  0  0
  3  9  2  0  0  0  0
  4  8  1  0  0  0  0
  4 10  1  0  0  0  0
  5  7  1  0  0  0  0
  6 11  1  0  0  0  0
  7 11  1  0  0  0  0
  1 12  1  0  0  0  0
  5 13  1  0  0  0  0
  5 14  1  0  0  0  0
  6 15  1  0  0  0  0
  6 16  1  0  0  0  0
  7 17  1  0  0  0  0
  7 18  1  0  0  0  0
  8 19  1  0  0  0  0
  8 20  1  0  0  0  0
  8 21  1  0  0  0  0
 11 22  1  0  0  0  0
M  END
> <FRED Chemgauss4 score>
-5.693271

$$$$
MOL0008_1
  -OEChem-06022418023D

 16 17  0     0  0  0  0  0  0999 V2000
   -0.1773   13.9474   -2.0033 C   0  0  0  0  0  0  0  0  0  0  0  0
    0.0892   14.8794   -2.9711 C   0  0  0  0  0  0  0  0  0  0  0  0
    1.3687   15.4081   -3.0282 C   0  0  0  0  0  0  0  0  0  0  0  0
    1.9839   14.1141   -1.2781 C   0  0  0  0  0  0  0  0  0  0  0  0
   -0.7859   15.4983   -4.0006 C   0  0  0  0  0  0  0  0  0  0  0  0
    0.2437   16.2786   -4.8464 C   0  0  0  0  0  0  0  0  0  0  0  0
    0.7673   13.5370   -1.1327 N   0  0  0  0  0  0  0  0  0  0  0  0
    2.3502   15.0440   -2.1871 N   0  0  0  0  0  0  0  0  0  0  0  0
    1.4645   16.3520   -4.0615 N   0  0  0  0  0  0  0  0  0  0  0  0
    3.1961   13.6083   -0.1821 Cl  0  0  0  0  0  0  0  0  0  0  0  0
   -1.1560   13.4980   -1.8877 H   0  0  0  0  0  0  0  0  0  0  0  0
   -1.3079   14.7483   -4.6015 H   0  0  0  0  0  0  0  0  0  0  0  0
   -1.5047   16.1777   -3.5317 H   0  0  0  0  0  0  0  0  0  0  0  0
    0.4456   15.7430   -5.7818 H   0  0  0  0  0  0  0  0  0  0  0  0
   -0.1261   17.2764   -5.1036 H   0  0  0  0  0  0  0  0  0  0  0  0
    2.3175   16.8170   -4.3307 H   0  0  0  0  0  0  0  0  0  0  0  0
  1  2  1  0  0  0  0
  1  7  2  0  0  0  0
  2  3  2  0  0  0  0
  2  5  1  0  0  0  0
  3  8  1  0  0  0  0
  3  9  1  0  0  0  0
  4  7  1  0  0  0  0
  4  8  2  0  0  0  0
  4 10  1  0  0  0  0
  5  6  1  0  0  0  0
  6  9  1  0  0  0  0
  1 11  1  0  0  0  0
  5 12  1  0  0  0  0
  5 13  1  0  0  0  0
  6 14  1  0  0  0  0
  6 15  1  0  0  0  0
  9 16  1  0  0  0  0
M  END
> <FRED Chemgauss4 score>
-5.683959

$$$$
MOL0041_1
  -OEChem-06022418023D

 18 19  0     0  0  0  0  0  0999 V2000
    1.8708   15.2273   -3.0992 C   0  0  0  0  0  0  0  0  0  0  0  0
    2.6680   13.9115   -1.4363 C   0  0  0  0  0  0  0  0  0  0  0  0
    0.6694   14.5371   -3.1216 C   0  0  0  0  0  0  0  0  0  0  0  0
    0.5629   13.4629   -2.2338 C   0  0  0  0  0  0  0  0  0  0  0  0
   -1.6538   14.2608   -3.7958 C   0  0  0  0  0  0  0  0  0  0  0  0
   -1.5183   12.8080   -3.3497 C   0  0  0  0  0  0  0  0  0  0  0  0
    2.8911   14.9429   -2.2664 N   0  0  0  0  0  0  0  0  0  0  0  0
    1.5583   13.1515   -1.3697 N   0  0  0  0  0  0  0  0  0  0  0  0
   -0.3493   14.8624   -3.9985 N   0  0  0  0  0  0  0  0  0  0  0  0
   -0.5995   12.6962   -2.2333 N   0  0  0  0  0  0  0  0  0  0  0  0
    2.0518   16.0634   -3.7684 H   0  0  0  0  0  0  0  0  0  0  0  0
    3.4660   13.6616   -0.7480 H   0  0  0  0  0  0  0  0  0  0  0  0
   -2.2290   14.3158   -4.7261 H   0  0  0  0  0  0  0  0  0  0  0  0
   -2.2035   14.8354   -3.0401 H   0  0  0  0  0  0  0  0  0  0  0  0
   -2.4970   12.4130   -3.0573 H   0  0  0  0  0  0  0  0  0  0  0  0
   -1.1549   12.1919   -4.1813 H   0  0  0  0  0  0  0  0  0  0  0  0
   -0.2662   15.6910   -4.5747 H   0  0  0  0  0  0  0  0  0  0  0  0
   -0.6575   11.9071   -1.6020 H   0  0  0  0  0  0  0  0  0  0  0  0
  1  3  1  0  0  0  0
  1  7  2  0  0  0  0
  2  7  1  0  0  0  0
  2  8  2  0  0  0  0
  3  4  2  0  0  0  0
  3  9  1  0  0  0  0
  4  8  1  0  0  0  0
  4 10  1  0  0  0  0
  5  6  1  0  0  0  0
  5  9  1  0  0  0  0
  6 10  1  0  0  0  0
  1 11  1  0  0  0  0
  2 12  1  0  0  0  0
  5 13  1  0  0  0  0
  5 14  1  0  0  0  0
  6 15  1  0  0  0  0
  6 16  1  0  0  0  0
  9 17  1  0  0  0  0
 10 18  1  0  0  0  0
M  END
> <FRED Chemgauss4 score>
-5.680321

$$$$
MOL0204_3
  -OEChem-06022418023D

 24 26  0     0  0  0  0  0  0999 V2000
    2.1575   14.4498   -3.8515 C   0  0  0  0  0  0  0  0  0  0  0  0
    1.5063   13.2234   -3.9754 C   0  0  0  0  0  0  0  0  0  0  0  0
    1.4104   15.5994   -3.9986 C   0  0  0  0  0  0  0  0  0  0  0  0
    0.1327   13.2163   -4.2192 C   0  0  0  0  0  0  0  0  0  0  0  0
    0.0463   15.4819   -4.2211 C   0  0  0  0  0  0  0  0  0  0  0  0
   -0.5699   16.8502   -4.2550 C   0  0  0  0  0  0  0  0  0  0  0  0
   -1.7101   11.7755   -5.3155 C   0  0  0  0  0  0  0  0  0  0  0  0
   -1.9719   11.7649   -3.8418 C   0  0  0  0  0  0  0  0  0  0  0  0
    0.6856   17.7503   -4.2555 C   0  0  0  0  0  0  0  0  0  0  0  0
   -0.5613   11.9015   -4.3505 C   0  0  0  0  0  0  0  0  0  0  0  0
   -0.6302   14.3284   -4.3404 N   0  0  0  0  0  0  0  0  0  0  0  0
    1.8155   16.9181   -3.8591 N   0  0  0  0  0  0  0  0  0  0  0  0
    3.2220   14.4899   -3.6468 H   0  0  0  0  0  0  0  0  0  0  0  0
    2.0658   12.2984   -3.8760 H   0  0  0  0  0  0  0  0  0  0  0  0
   -1.1765   16.9980   -5.1524 H   0  0  0  0  0  0  0  0  0  0  0  0
   -1.1721   17.0106   -3.3554 H   0  0  0  0  0  0  0  0  0  0  0  0
   -1.8087   10.8390   -5.8520 H   0  0  0  0  0  0  0  0  0  0  0  0
   -2.0287   12.6454   -5.8768 H   0  0  0  0  0  0  0  0  0  0  0  0
   -2.4648   12.6290   -3.4124 H   0  0  0  0  0  0  0  0  0  0  0  0
   -2.2482   10.8222   -3.3847 H   0  0  0  0  0  0  0  0  0  0  0  0
    0.8632   18.1447   -5.2635 H   0  0  0  0  0  0  0  0  0  0  0  0
    0.5646   18.6026   -3.5792 H   0  0  0  0  0  0  0  0  0  0  0  0
    0.0760   11.0339   -4.2427 H   0  0  0  0  0  0  0  0  0  0  0  0
    2.7791   17.2043   -3.9570 H   0  0  0  0  0  0  0  0  0  0  0  0
  1  2  1  0  0  0  0
  1  3  2  0  0  0  0
  2  4  2  0  0  0  0
  3  5  1  0  0  0  0
  3 12  1  0  0  0  0
  4 10  1  0  0  0  0
  4 11  1  0  0  0  0
  5  6  1  0  0  0  0
  5 11  2  0  0  0  0
  6  9  1  0  0  0  0
  7  8  1  0  0  0  0
  7 10  1  0  0  0  0
  8 10  1  0  0  0  0
  9 12  1  0  0  0  0
  1 13  1  0  0  0  0
  2 14  1  0  0  0  0
  6 15  1  0  0  0  0
  6 16  1  0  0  0  0
  7 17  1  0  0  0  0
  7 18  1  0  0  0  0
  8 19  1  0  0  0  0
  8 20  1  0  0  0  0
  9 21  1  0  0  0  0
  9 22  1  0  0  0  0
 10 23  1  0  0  0  0
 12 24  1  0  0  0  0
M  END
> <FRED Chemgauss4 score>
-5.678759

$$$$
MOL0013_1
  -OEChem-06022418023D

 17 18  0     0  0  0  0  0  0999 V2000
    2.1241   15.3405   -3.0266 C   0  0  0  0  0  0  0  0  0  0  0  0
    2.7119   13.6189   -1.6322 C   0  0  0  0  0  0  0  0  0  0  0  0
    0.8708   14.8036   -3.1495 C   0  0  0  0  0  0  0  0  0  0  0  0
    0.6240   13.6286   -2.4614 C   0  0  0  0  0  0  0  0  0  0  0  0
   -0.3045   15.2367   -3.9503 C   0  0  0  0  0  0  0  0  0  0  0  0
   -0.7670   13.1356   -2.7383 C   0  0  0  0  0  0  0  0  0  0  0  0
   -1.4229   14.4121   -3.2894 C   0  0  0  0  0  0  0  0  0  0  0  0
    3.0756   14.7651   -2.2595 N   0  0  0  0  0  0  0  0  0  0  0  0
    1.5170   12.9938   -1.6899 N   0  0  0  0  0  0  0  0  0  0  0  0
    2.4157   16.2505   -3.5373 H   0  0  0  0  0  0  0  0  0  0  0  0
    3.4704   13.1506   -1.0164 H   0  0  0  0  0  0  0  0  0  0  0  0
   -0.4987   16.3097   -3.8700 H   0  0  0  0  0  0  0  0  0  0  0  0
   -0.1745   14.9553   -5.0002 H   0  0  0  0  0  0  0  0  0  0  0  0
   -0.7384   12.3454   -3.4953 H   0  0  0  0  0  0  0  0  0  0  0  0
   -1.2682   12.7744   -1.8365 H   0  0  0  0  0  0  0  0  0  0  0  0
   -1.8462   14.9869   -2.4537 H   0  0  0  0  0  0  0  0  0  0  0  0
   -2.2448   14.1951   -3.9790 H   0  0  0  0  0  0  0  0  0  0  0  0
  1  3  1  0  0  0  0
  1  8  2  0  0  0  0
  2  8  1  0  0  0  0
  2  9  2  0  0  0  0
  3  4  2  0  0  0  0
  3  5  1  0  0  0  0
  4  6  1  0  0  0  0
  4  9  1  0  0  0  0
  5  7  1  0  0  0  0
  6  7  1  0  0  0  0
  1 10  1  0  0  0  0
  2 11  1  0  0  0  0
  5 12  1  0  0  0  0
  5 13  1  0  0  0  0
  6 14  1  0  0  0  0
  6 15  1  0  0  0  0
  7 16  1  0  0  0  0
  7 17  1  0  0  0  0
M  END
> <FRED Chemgauss4 score>
-5.635384

$$$$
MOL0229_13
  -OEChem-06022418023D

 26 28  0     0  0  0  0  0  0999 V2000
   -3.4214   13.1484   -2.6526 C   0  0  0  0  0  0  0  0  0  0  0  0
   -3.5984   14.1376   -1.7217 C   0  0  0  0  0  0  0  0  0  0  0  0
   -2.4709   14.6667   -1.1145 C   0  0  0  0  0  0  0  0  0  0  0  0
   -1.1617   13.2866   -2.3379 C   0  0  0  0  0  0  0  0  0  0  0  0
   -4.8340   14.7579   -1.1764 C   0  0  0  0  0  0  0  0  0  0  0  0
   -0.1833   14.5671   -4.6757 C   0  0  0  0  0  0  0  0  0  0  0  0
    0.8281   15.2226   -3.7768 C   0  0  0  0  0  0  0  0  0  0  0  0
   -4.2499   15.9219   -0.3469 C   0  0  0  0  0  0  0  0  0  0  0  0
    0.9422   13.7637   -4.0986 C   0  0  0  0  0  0  0  0  0  0  0  0
   -2.1947   12.6998   -2.9882 N   0  0  0  0  0  0  0  0  0  0  0  0
   -1.2242   14.2588   -1.4021 N   0  0  0  0  0  0  0  0  0  0  0  0
   -2.8312   15.6524   -0.1837 N   0  0  0  0  0  0  0  0  0  0  0  0
    1.3145   12.9812   -1.6240 O   0  0  0  0  0  0  0  0  0  0  0  0
    0.3296   11.3642   -3.2857 O   0  0  0  0  0  0  0  0  0  0  0  0
    0.4176   12.7223   -2.7492 S   0  0  0  0  0  0  0  0  0  0  0  0
   -4.2540   12.6772   -3.1609 H   0  0  0  0  0  0  0  0  0  0  0  0
   -5.4940   15.1246   -1.9674 H   0  0  0  0  0  0  0  0  0  0  0  0
   -5.3667   14.0480   -0.5360 H   0  0  0  0  0  0  0  0  0  0  0  0
   -1.1874   14.4340   -4.2924 H   0  0  0  0  0  0  0  0  0  0  0  0
   -0.1424   14.8032   -5.7324 H   0  0  0  0  0  0  0  0  0  0  0  0
    1.5434   15.8960   -4.2341 H   0  0  0  0  0  0  0  0  0  0  0  0
    0.5025   15.5294   -2.7905 H   0  0  0  0  0  0  0  0  0  0  0  0
   -4.3794   16.8689   -0.8842 H   0  0  0  0  0  0  0  0  0  0  0  0
   -4.7529   16.0137    0.6211 H   0  0  0  0  0  0  0  0  0  0  0  0
    1.7373   13.4285   -4.7488 H   0  0  0  0  0  0  0  0  0  0  0  0
   -2.1733   16.2189    0.3287 H   0  0  0  0  0  0  0  0  0  0  0  0
  1  2  1  0  0  0  0
  1 10  2  0  0  0  0
  2  3  2  0  0  0  0
  2  5  1  0  0  0  0
  3 11  1  0  0  0  0
  3 12  1  0  0  0  0
  4 10  1  0  0  0  0
  4 11  2  0  0  0  0
  4 15  1  0  0  0  0
  5  8  1  0  0  0  0
  6  7  1  0  0  0  0
  6  9  1  0  0  0  0
  7  9  1  0  0  0  0
  8 12  1  0  0  0  0
  9 15  1  0  0  0  0
 13 15  2  0  0  0  0
 14 15  2  0  0  0  0
  1 16  1  0  0  0  0
  5 17  1  0  0  0  0
  5 18  1  0  0  0  0
  6 19  1  0  0  0  0
  6 20  1  0  0  0  0
  7 21  1  0  0  0  0
  7 22  1  0  0  0  0
  8 23  1  0  0  0  0
  8 24  1  0  0  0  0
  9 25  1  0  0  0  0
 12 26  1  0  0  0  0
M  END
> <FRED Chemgauss4 score>
-5.598391

$$$$
MOL0033_1
  -OEChem-06022418023D

 19 20  0     0  0  0  0  0  0999 V2000
    1.7071   15.4634   -3.1441 C   0  0  0  0  0  0  0  0  0  0  0  0
    0.4869   14.8354   -3.3260 C   0  0  0  0  0  0  0  0  0  0  0  0
    0.2230   13.7699   -2.4714 C   0  0  0  0  0  0  0  0  0  0  0  0
    2.2565   14.0302   -1.4693 C   0  0  0  0  0  0  0  0  0  0  0  0
   -0.5212   15.3159   -4.3275 C   0  0  0  0  0  0  0  0  0  0  0  0
   -1.0664   13.0044   -2.6093 C   0  0  0  0  0  0  0  0  0  0  0  0
   -2.1287   13.7900   -3.3823 C   0  0  0  0  0  0  0  0  0  0  0  0
    2.6183   15.0825   -2.2258 N   0  0  0  0  0  0  0  0  0  0  0  0
    1.1019   13.3407   -1.5377 N   0  0  0  0  0  0  0  0  0  0  0  0
   -1.5741   14.3346   -4.6252 N   0  0  0  0  0  0  0  0  0  0  0  0
    3.5137   13.4544   -0.1579 Br  0  0  0  0  0  0  0  0  0  0  0  0
    1.9976   16.3156   -3.7504 H   0  0  0  0  0  0  0  0  0  0  0  0
   -1.0037   16.2296   -3.9572 H   0  0  0  0  0  0  0  0  0  0  0  0
   -0.0018   15.5809   -5.2582 H   0  0  0  0  0  0  0  0  0  0  0  0
   -0.8767   12.0525   -3.1169 H   0  0  0  0  0  0  0  0  0  0  0  0
   -1.4344   12.7779   -1.6015 H   0  0  0  0  0  0  0  0  0  0  0  0
   -2.9969   13.1535   -3.6080 H   0  0  0  0  0  0  0  0  0  0  0  0
   -2.5016   14.6137   -2.7596 H   0  0  0  0  0  0  0  0  0  0  0  0
   -2.3177   14.7905   -5.1514 H   0  0  0  0  0  0  0  0  0  0  0  0
  1  2  1  0  0  0  0
  1  8  2  0  0  0  0
  2  3  2  0  0  0  0
  2  5  1  0  0  0  0
  3  6  1  0  0  0  0
  3  9  1  0  0  0  0
  4  8  1  0  0  0  0
  4  9  2  0  0  0  0
  4 11  1  0  0  0  0
  5 10  1  0  0  0  0
  6  7  1  0  0  0  0
  7 10  1  0  0  0  0
  1 12  1  0  0  0  0
  5 13  1  0  0  0  0
  5 14  1  0  0  0  0
  6 15  1  0  0  0  0
  6 16  1  0  0  0  0
  7 17  1  0  0  0  0
  7 18  1  0  0  0  0
 10 19  1  0  0  0  0
M  END
> <FRED Chemgauss4 score>
-5.597426

$$$$
MOL0171_1
  -OEChem-06022418023D

 19 20  0     0  0  0  0  0  0999 V2000
   -0.0916   12.5049   -4.6561 C   0  0  0  0  0  0  0  0  0  0  0  0
   -0.4525   11.3400   -4.0104 C   0  0  0  0  0  0  0  0  0  0  0  0
    0.4537   13.5327   -3.8972 C   0  0  0  0  0  0  0  0  0  0  0  0
    0.6236   13.3119   -2.5333 C   0  0  0  0  0  0  0  0  0  0  0  0
    0.9115   14.8143   -4.5407 C   0  0  0  0  0  0  0  0  0  0  0  0
    1.1812   14.3968   -1.6537 C   0  0  0  0  0  0  0  0  0  0  0  0
    1.9217   15.4695   -2.4546 C   0  0  0  0  0  0  0  0  0  0  0  0
   -0.2928   11.1571   -2.6843 N   0  0  0  0  0  0  0  0  0  0  0  0
    0.2497   12.1567   -1.9364 N   0  0  0  0  0  0  0  0  0  0  0  0
    1.1144   15.9184   -3.5923 N   0  0  0  0  0  0  0  0  0  0  0  0
   -0.2357   12.6090   -5.7262 H   0  0  0  0  0  0  0  0  0  0  0  0
   -0.8911   10.5081   -4.5491 H   0  0  0  0  0  0  0  0  0  0  0  0
    1.8585   14.6444   -5.0694 H   0  0  0  0  0  0  0  0  0  0  0  0
    0.1716   15.1171   -5.2940 H   0  0  0  0  0  0  0  0  0  0  0  0
    0.3697   14.8630   -1.0847 H   0  0  0  0  0  0  0  0  0  0  0  0
    1.8669   13.9319   -0.9354 H   0  0  0  0  0  0  0  0  0  0  0  0
    2.1777   16.3269   -1.8151 H   0  0  0  0  0  0  0  0  0  0  0  0
    2.8726   15.0619   -2.8219 H   0  0  0  0  0  0  0  0  0  0  0  0
    1.5958   16.6820   -4.0645 H   0  0  0  0  0  0  0  0  0  0  0  0
  1  2  1  0  0  0  0
  1  3  2  0  0  0  0
  2  8  2  0  0  0  0
  3  4  1  0  0  0  0
  3  5  1  0  0  0  0
  4  6  1  0  0  0  0
  4  9  2  0  0  0  0
  5 10  1  0  0  0  0
  6  7  1  0  0  0  0
  7 10  1  0  0  0  0
  8  9  1  0  0  0  0
  1 11  1  0  0  0  0
  2 12  1  0  0  0  0
  5 13  1  0  0  0  0
  5 14  1  0  0  0  0
  6 15  1  0  0  0  0
  6 16  1  0  0  0  0
  7 17  1  0  0  0  0
  7 18  1  0  0  0  0
 10 19  1  0  0  0  0
M  END
> <FRED Chemgauss4 score>
-5.585970

$$$$
MOL0219_1
  -OEChem-06022418023D

 23 24  0     0  0  0  0  0  0999 V2000
   -0.0873   14.8928    0.8923 C   0  0  0  0  0  0  0  0  0  0  0  0
    0.0173   14.8410   -0.4725 C   0  0  0  0  0  0  0  0  0  0  0  0
   -1.1408   14.6358   -1.2050 C   0  0  0  0  0  0  0  0  0  0  0  0
   -2.3426   14.5686    0.7100 C   0  0  0  0  0  0  0  0  0  0  0  0
   -3.6294   14.4243    1.3700 C   0  0  0  0  0  0  0  0  0  0  0  0
   -4.8184   14.2248    0.7558 C   0  0  0  0  0  0  0  0  0  0  0  0
    1.2015   14.9247   -1.3667 C   0  0  0  0  0  0  0  0  0  0  0  0
    0.5300   15.0041   -2.7549 C   0  0  0  0  0  0  0  0  0  0  0  0
   -6.1207   14.0910    1.4761 C   0  0  0  0  0  0  0  0  0  0  0  0
   -1.2739   14.7618    1.5194 N   0  0  0  0  0  0  0  0  0  0  0  0
   -2.3502   14.4932   -0.6388 N   0  0  0  0  0  0  0  0  0  0  0  0
   -0.8535   14.5960   -2.5774 N   0  0  0  0  0  0  0  0  0  0  0  0
    0.7741   15.0378    1.5327 H   0  0  0  0  0  0  0  0  0  0  0  0
   -3.6312   14.5035    2.4634 H   0  0  0  0  0  0  0  0  0  0  0  0
   -4.8702   14.1632   -0.3275 H   0  0  0  0  0  0  0  0  0  0  0  0
    1.8066   15.8133   -1.1658 H   0  0  0  0  0  0  0  0  0  0  0  0
    1.8120   14.0207   -1.2765 H   0  0  0  0  0  0  0  0  0  0  0  0
    0.5590   16.0347   -3.1285 H   0  0  0  0  0  0  0  0  0  0  0  0
    1.0435   14.3680   -3.4830 H   0  0  0  0  0  0  0  0  0  0  0  0
   -6.3117   13.0386    1.7071 H   0  0  0  0  0  0  0  0  0  0  0  0
   -6.0843   14.6483    2.4172 H   0  0  0  0  0  0  0  0  0  0  0  0
   -6.9627   14.4696    0.8881 H   0  0  0  0  0  0  0  0  0  0  0  0
   -1.5494   14.5220   -3.3028 H   0  0  0  0  0  0  0  0  0  0  0  0
  1  2  1  0  0  0  0
  1 10  2  0  0  0  0
  2  3  2  0  0  0  0
  2  7  1  0  0  0  0
  3 11  1  0  0  0  0
  3 12  1  0  0  0  0
  4  5  1  0  0  0  0
  4 10  1  0  0  0  0
  4 11  2  0  0  0  0
  5  6  2  0  0  0  0
  6  9  1  0  0  0  0
  7  8  1  0  0  0  0
  8 12  1  0  0  0  0
  1 13  1  0  0  0  0
  5 14  1  0  0  0  0
  6 15  1  0  0  0  0
  7 16  1  0  0  0  0
  7 17  1  0  0  0  0
  8 18  1  0  0  0  0
  8 19  1  0  0  0  0
  9 20  1  0  0  0  0
  9 21  1  0  0  0  0
  9 22  1  0  0  0  0
 12 23  1  0  0  0  0
M  END
> <FRED Chemgauss4 score>
-5.535052

$$$$
MOL0116_1
  -OEChem-06022418023D

 20 21  0     0  0  0  0  0  0999 V2000
   -2.7963   15.3464    1.5649 C   0  0  0  0  0  0  0  0  0  0  0  0
   -0.5657   14.9928    1.1441 C   0  0  0  0  0  0  0  0  0  0  0  0
   -3.1507   15.0683    0.2492 C   0  0  0  0  0  0  0  0  0  0  0  0
   -2.1265   14.7129   -0.6383 C   0  0  0  0  0  0  0  0  0  0  0  0
   -0.8068   14.6871   -0.1857 C   0  0  0  0  0  0  0  0  0  0  0  0
   -2.4454   14.4231   -2.0821 C   0  0  0  0  0  0  0  0  0  0  0  0
   -4.5892   15.0797   -0.1902 C   0  0  0  0  0  0  0  0  0  0  0  0
   -3.9321   14.1347   -2.3067 C   0  0  0  0  0  0  0  0  0  0  0  0
   -1.5284   15.3199    2.0335 N   0  0  0  0  0  0  0  0  0  0  0  0
   -4.7530   15.1506   -1.6474 N   0  0  0  0  0  0  0  0  0  0  0  0
    0.5336   14.3135   -1.2019 Cl  0  0  0  0  0  0  0  0  0  0  0  0
   -3.5474   15.6059    2.3045 H   0  0  0  0  0  0  0  0  0  0  0  0
    0.4397   14.9892    1.5551 H   0  0  0  0  0  0  0  0  0  0  0  0
   -2.1469   15.2912   -2.6833 H   0  0  0  0  0  0  0  0  0  0  0  0
   -1.8820   13.5523   -2.4360 H   0  0  0  0  0  0  0  0  0  0  0  0
   -5.0827   14.1783    0.1936 H   0  0  0  0  0  0  0  0  0  0  0  0
   -5.0950   15.9483    0.2468 H   0  0  0  0  0  0  0  0  0  0  0  0
   -4.1410   14.1388   -3.3821 H   0  0  0  0  0  0  0  0  0  0  0  0
   -4.1939   13.1362   -1.9339 H   0  0  0  0  0  0  0  0  0  0  0  0
   -5.7344   14.9998   -1.8794 H   0  0  0  0  0  0  0  0  0  0  0  0
  1  3  2  0  0  0  0
  1  9  1  0  0  0  0
  2  5  1  0  0  0  0
  2  9  2  0  0  0  0
  3  4  1  0  0  0  0
  3  7  1  0  0  0  0
  4  5  2  0  0  0  0
  4  6  1  0  0  0  0
  5 11  1  0  0  0  0
  6  8  1  0  0  0  0
  7 10  1  0  0  0  0
  8 10  1  0  0  0  0
  1 12  1  0  0  0  0
  2 13  1  0  0  0  0
  6 14  1  0  0  0  0
  6 15  1  0  0  0  0
  7 16  1  0  0  0  0
  7 17  1  0  0  0  0
  8 18  1  0  0  0  0
  8 19  1  0  0  0  0
 10 20  1  0  0  0  0
M  END
> <FRED Chemgauss4 score>
-5.532566

$$$$
MOL0146_1
  -OEChem-06022418023D

 23 24  0     0  0  0  0  0  0999 V2000
   -2.3547   15.2015    1.1063 C   0  0  0  0  0  0  0  0  0  0  0  0
   -0.0766   14.9183    1.0219 C   0  0  0  0  0  0  0  0  0  0  0  0
   -2.5086   14.8521   -0.2309 C   0  0  0  0  0  0  0  0  0  0  0  0
   -1.3572   14.4988   -0.9467 C   0  0  0  0  0  0  0  0  0  0  0  0
   -0.1153   14.5451   -0.3119 C   0  0  0  0  0  0  0  0  0  0  0  0
   -1.4572   14.1334   -2.4050 C   0  0  0  0  0  0  0  0  0  0  0  0
   -3.8693   14.7873   -0.8687 C   0  0  0  0  0  0  0  0  0  0  0  0
   -2.8864   13.7769   -2.8225 C   0  0  0  0  0  0  0  0  0  0  0  0
    1.1559   14.2169   -1.0179 C   0  0  0  0  0  0  0  0  0  0  0  0
   -1.1665   15.2458    1.7496 N   0  0  0  0  0  0  0  0  0  0  0  0
   -3.8259   14.7876   -2.3361 N   0  0  0  0  0  0  0  0  0  0  0  0
   -3.2119   15.4627    1.7192 H   0  0  0  0  0  0  0  0  0  0  0  0
    0.8629   14.9706    1.5641 H   0  0  0  0  0  0  0  0  0  0  0  0
   -1.1053   14.9870   -2.9982 H   0  0  0  0  0  0  0  0  0  0  0  0
   -0.8118   13.2761   -2.6285 H   0  0  0  0  0  0  0  0  0  0  0  0
   -4.3827   13.8848   -0.5146 H   0  0  0  0  0  0  0  0  0  0  0  0
   -4.4606   15.6535   -0.5506 H   0  0  0  0  0  0  0  0  0  0  0  0
   -2.9395   13.7262   -3.9156 H   0  0  0  0  0  0  0  0  0  0  0  0
   -3.1663   12.7860   -2.4421 H   0  0  0  0  0  0  0  0  0  0  0  0
    1.3826   13.1479   -0.9207 H   0  0  0  0  0  0  0  0  0  0  0  0
    1.0943   14.4632   -2.0861 H   0  0  0  0  0  0  0  0  0  0  0  0
    1.9989   14.7894   -0.6087 H   0  0  0  0  0  0  0  0  0  0  0  0
   -4.7586   14.5883   -2.6965 H   0  0  0  0  0  0  0  0  0  0  0  0
  1  3  2  0  0  0  0
  1 10  1  0  0  0  0
  2  5  1  0  0  0  0
  2 10  2  0  0  0  0
  3  4  1  0  0  0  0
  3  7  1  0  0  0  0
  4  5  2  0  0  0  0
  4  6  1  0  0  0  0
  5  9  1  0  0  0  0
  6  8  1  0  0  0  0
  7 11  1  0  0  0  0
  8 11  1  0  0  0  0
  1 12  1  0  0  0  0
  2 13  1  0  0  0  0
  6 14  1  0  0  0  0
  6 15  1  0  0  0  0
  7 16  1  0  0  0  0
  7 17  1  0  0  0  0
  8 18  1  0  0  0  0
  8 19  1  0  0  0  0
  9 20  1  0  0  0  0
  9 21  1  0  0  0  0
  9 22  1  0  0  0  0
 11 23  1  0  0  0  0
M  END
> <FRED Chemgauss4 score>
-5.513319

$$$$
MOL0090_1
  -OEChem-06022418023D

 19 20  0     0  0  0  0  0  0999 V2000
    0.0907   14.9267    1.2596 C   0  0  0  0  0  0  0  0  0  0  0  0
    0.2111   14.5584   -0.0623 C   0  0  0  0  0  0  0  0  0  0  0  0
   -2.1862   14.9450    1.0472 C   0  0  0  0  0  0  0  0  0  0  0  0
   -2.0659   14.5774   -0.2749 C   0  0  0  0  0  0  0  0  0  0  0  0
   -4.5043   15.3145   -1.1787 C   0  0  0  0  0  0  0  0  0  0  0  0
   -3.2002   14.8484   -2.7129 C   0  0  0  0  0  0  0  0  0  0  0  0
   -3.2919   14.3513   -1.2479 C   0  0  0  0  0  0  0  0  0  0  0  0
   -1.1101   15.1266    1.8381 N   0  0  0  0  0  0  0  0  0  0  0  0
   -0.8651   14.3772   -0.8533 N   0  0  0  0  0  0  0  0  0  0  0  0
   -4.6389   15.1927   -2.6484 N   0  0  0  0  0  0  0  0  0  0  0  0
    0.9559   15.0723    1.8944 H   0  0  0  0  0  0  0  0  0  0  0  0
    1.1763   14.3979   -0.5264 H   0  0  0  0  0  0  0  0  0  0  0  0
   -3.1495   15.1065    1.5158 H   0  0  0  0  0  0  0  0  0  0  0  0
   -5.3652   14.9507   -0.6100 H   0  0  0  0  0  0  0  0  0  0  0  0
   -4.2717   16.3339   -0.8475 H   0  0  0  0  0  0  0  0  0  0  0  0
   -2.5525   15.7192   -2.8710 H   0  0  0  0  0  0  0  0  0  0  0  0
   -2.9465   14.0861   -3.4558 H   0  0  0  0  0  0  0  0  0  0  0  0
   -3.6123   13.2962   -1.1996 H   0  0  0  0  0  0  0  0  0  0  0  0
   -5.2450   14.4207   -2.9284 H   0  0  0  0  0  0  0  0  0  0  0  0
  1  2  1  0  0  0  0
  1  8  2  0  0  0  0
  2  9  2  0  0  0  0
  3  4  2  0  0  0  0
  3  8  1  0  0  0  0
  4  7  1  0  0  0  0
  4  9  1  0  0  0  0
  5  7  1  0  0  0  0
  5 10  1  0  0  0  0
  6  7  1  0  0  0  0
  6 10  1  0  0  0  0
  1 11  1  0  0  0  0
  2 12  1  0  0  0  0
  3 13  1  0  0  0  0
  5 14  1  0  0  0  0
  5 15  1  0  0  0  0
  6 16  1  0  0  0  0
  6 17  1  0  0  0  0
  7 18  1  0  0  0  0
 10 19  1  0  0  0  0
M  END
> <FRED Chemgauss4 score>
-5.507472

$$$$
MOL0009_2
  -OEChem-06022418023D

 18 19  0     0  0  0  0  0  0999 V2000
   -2.7024   14.7908   -1.0835 C   0  0  0  0  0  0  0  0  0  0  0  0
   -3.6144   15.1107   -0.1128 C   0  0  0  0  0  0  0  0  0  0  0  0
   -3.1442   15.3353    1.1710 C   0  0  0  0  0  0  0  0  0  0  0  0
   -1.0302   14.9463    0.4670 C   0  0  0  0  0  0  0  0  0  0  0  0
   -5.0951   15.2287   -0.1626 C   0  0  0  0  0  0  0  0  0  0  0  0
   -5.4006   15.8192    1.2310 C   0  0  0  0  0  0  0  0  0  0  0  0
   -1.3830   14.7046   -0.8181 N   0  0  0  0  0  0  0  0  0  0  0  0
   -1.8440   15.2595    1.4988 N   0  0  0  0  0  0  0  0  0  0  0  0
   -4.2057   15.6353    2.0375 N   0  0  0  0  0  0  0  0  0  0  0  0
    0.3740   14.8570    0.7680 N   0  3  0  0  0  0  0  0  0  0  0  0
    1.0667   15.8866    0.6585 O   0  5  0  0  0  0  0  0  0  0  0  0
    0.8313   13.7541    1.1237 O   0  0  0  0  0  0  0  0  0  0  0  0
   -2.9943   14.5900   -2.1071 H   0  0  0  0  0  0  0  0  0  0  0  0
   -5.4278   15.8985   -0.9604 H   0  0  0  0  0  0  0  0  0  0  0  0
   -5.5531   14.2413   -0.2793 H   0  0  0  0  0  0  0  0  0  0  0  0
   -5.6186   16.8906    1.1460 H   0  0  0  0  0  0  0  0  0  0  0  0
   -6.2694   15.3346    1.6879 H   0  0  0  0  0  0  0  0  0  0  0  0
   -4.0948   15.8980    3.0044 H   0  0  0  0  0  0  0  0  0  0  0  0
  1  2  1  0  0  0  0
  1  7  2  0  0  0  0
  2  3  2  0  0  0  0
  2  5  1  0  0  0  0
  3  8  1  0  0  0  0
  3  9  1  0  0  0  0
  4  7  1  0  0  0  0
  4  8  2  0  0  0  0
  4 10  1  0  0  0  0
  5  6  1  0  0  0  0
  6  9  1  0  0  0  0
 10 11  1  0  0  0  0
 10 12  2  0  0  0  0
  1 13  1  0  0  0  0
  5 14  1  0  0  0  0
  5 15  1  0  0  0  0
  6 16  1  0  0  0  0
  6 17  1  0  0  0  0
  9 18  1  0  0  0  0
M  CHG  2  10   1  11  -1
M  END
> <FRED Chemgauss4 score>
-5.485485

$$$$
MOL0007_1
  -OEChem-06022418023D

 19 20  0     0  0  0  0  0  0999 V2000
   -2.8909   15.2687    1.1662 C   0  0  0  0  0  0  0  0  0  0  0  0
   -0.6681   14.9186    0.8555 C   0  0  0  0  0  0  0  0  0  0  0  0
   -3.1616   14.9195   -0.1453 C   0  0  0  0  0  0  0  0  0  0  0  0
   -2.0631   14.5471   -0.9131 C   0  0  0  0  0  0  0  0  0  0  0  0
   -4.5548   14.8717   -0.6945 C   0  0  0  0  0  0  0  0  0  0  0  0
   -2.2477   14.1836   -2.3642 C   0  0  0  0  0  0  0  0  0  0  0  0
   -4.5726   14.7944   -2.2239 C   0  0  0  0  0  0  0  0  0  0  0  0
   -1.6519   15.2823    1.6982 N   0  0  0  0  0  0  0  0  0  0  0  0
   -0.7987   14.5500   -0.4333 N   0  0  0  0  0  0  0  0  0  0  0  0
   -3.6210   13.7872   -2.6972 N   0  0  0  0  0  0  0  0  0  0  0  0
   -3.6846   15.5586    1.8473 H   0  0  0  0  0  0  0  0  0  0  0  0
    0.3379   14.9211    1.2570 H   0  0  0  0  0  0  0  0  0  0  0  0
   -5.0884   14.0050   -0.2875 H   0  0  0  0  0  0  0  0  0  0  0  0
   -5.0839   15.7756   -0.3671 H   0  0  0  0  0  0  0  0  0  0  0  0
   -1.9715   15.0396   -2.9904 H   0  0  0  0  0  0  0  0  0  0  0  0
   -1.5595   13.3671   -2.6137 H   0  0  0  0  0  0  0  0  0  0  0  0
   -5.5802   14.5566   -2.5879 H   0  0  0  0  0  0  0  0  0  0  0  0
   -4.3098   15.7716   -2.6434 H   0  0  0  0  0  0  0  0  0  0  0  0
   -3.7072   13.6919   -3.7093 H   0  0  0  0  0  0  0  0  0  0  0  0
  1  3  1  0  0  0  0
  1  8  2  0  0  0  0
  2  8  1  0  0  0  0
  2  9  2  0  0  0  0
  3  4  2  0  0  0  0
  3  5  1  0  0  0  0
  4  6  1  0  0  0  0
  4  9  1  0  0  0  0
  5  7  1  0  0  0  0
  6 10  1  0  0  0  0
  7 10  1  0  0  0  0
  1 11  1  0  0  0  0
  2 12  1  0  0  0  0
  5 13  1  0  0  0  0
  5 14  1  0  0  0  0
  6 15  1  0  0  0  0
  6 16  1  0  0  0  0
  7 17  1  0  0  0  0
  7 18  1  0  0  0  0
 10 19  1  0  0  0  0
M  END
> <FRED Chemgauss4 score>
-5.424331

$$$$
MOL0023_1
  -OEChem-06022418023D

 19 20  0     0  0  0  0  0  0999 V2000
    1.1750   11.9005   -2.1459 C   0  0  0  0  0  0  0  0  0  0  0  0
    1.3139   13.1895   -2.6313 C   0  0  0  0  0  0  0  0  0  0  0  0
    0.2125   13.7011   -3.3096 C   0  0  0  0  0  0  0  0  0  0  0  0
   -0.9225   11.7451   -3.0047 C   0  0  0  0  0  0  0  0  0  0  0  0
    2.5419   14.0133   -2.3796 C   0  0  0  0  0  0  0  0  0  0  0  0
    0.2763   15.0851   -3.8997 C   0  0  0  0  0  0  0  0  0  0  0  0
    1.3925   15.9300   -3.2802 C   0  0  0  0  0  0  0  0  0  0  0  0
    0.0694   11.1479   -2.3192 N   0  0  0  0  0  0  0  0  0  0  0  0
   -0.9183   12.9897   -3.5187 N   0  0  0  0  0  0  0  0  0  0  0  0
    2.6566   15.1880   -3.2555 N   0  0  0  0  0  0  0  0  0  0  0  0
   -2.3417   10.8252   -3.2493 Cl  0  0  0  0  0  0  0  0  0  0  0  0
    1.9726   11.4194   -1.5887 H   0  0  0  0  0  0  0  0  0  0  0  0
    2.5452   14.3640   -1.3394 H   0  0  0  0  0  0  0  0  0  0  0  0
    3.4299   13.3797   -2.5083 H   0  0  0  0  0  0  0  0  0  0  0  0
    0.4300   15.0166   -4.9820 H   0  0  0  0  0  0  0  0  0  0  0  0
   -0.6923   15.5701   -3.7304 H   0  0  0  0  0  0  0  0  0  0  0  0
    1.5223   16.8714   -3.8340 H   0  0  0  0  0  0  0  0  0  0  0  0
    1.1154   16.2092   -2.2552 H   0  0  0  0  0  0  0  0  0  0  0  0
    3.3944   15.7964   -2.9047 H   0  0  0  0  0  0  0  0  0  0  0  0
  1  2  1  0  0  0  0
  1  8  2  0  0  0  0
  2  3  2  0  0  0  0
  2  5  1  0  0  0  0
  3  6  1  0  0  0  0
  3  9  1  0  0  0  0
  4  8  1  0  0  0  0
  4  9  2  0  0  0  0
  4 11  1  0  0  0  0
  5 10  1  0  0  0  0
  6  7  1  0  0  0  0
  7 10  1  0  0  0  0
  1 12  1  0  0  0  0
  5 13  1  0  0  0  0
  5 14  1  0  0  0  0
  6 15  1  0  0  0  0
  6 16  1  0  0  0  0
  7 17  1  0  0  0  0
  7 18  1  0  0  0  0
 10 19  1  0  0  0  0
M  END
> <FRED Chemgauss4 score>
-5.417086

$$$$
MOL0216_1
  -OEChem-06022418023D

 19 20  0     1  0  0  0  0  0999 V2000
   -2.8702   15.0344    1.0972 C   0  0  0  0  0  0  0  0  0  0  0  0
   -0.6054   14.8520    0.7947 C   0  0  0  0  0  0  0  0  0  0  0  0
   -3.0581   14.7680   -0.2312 C   0  0  0  0  0  0  0  0  0  0  0  0
   -1.9307   14.5504   -0.9922 C   0  0  0  0  0  0  0  0  0  0  0  0
   -4.2761   14.6905   -1.0703 C   0  0  0  0  0  0  0  0  0  0  0  0
   -2.3380   14.3259   -2.4223 C   0  0  1  0  0  0  0  0  0  0  0  0
   -1.6749   13.1038   -3.0444 C   0  0  0  0  0  0  0  0  0  0  0  0
   -1.6367   15.0783    1.6464 N   0  0  0  0  0  0  0  0  0  0  0  0
   -0.6747   14.5899   -0.5275 N   0  0  0  0  0  0  0  0  0  0  0  0
   -3.8230   14.1792   -2.3914 N   0  0  0  0  0  0  0  0  0  0  0  0
   -3.6960   15.2248    1.7716 H   0  0  0  0  0  0  0  0  0  0  0  0
    0.3878   14.8883    1.2262 H   0  0  0  0  0  0  0  0  0  0  0  0
   -5.0202   14.0131   -0.6402 H   0  0  0  0  0  0  0  0  0  0  0  0
   -4.7178   15.6839   -1.1977 H   0  0  0  0  0  0  0  0  0  0  0  0
   -2.0916   15.2222   -3.0035 H   0  0  0  0  0  0  0  0  0  0  0  0
   -1.9195   12.2120   -2.4670 H   0  0  0  0  0  0  0  0  0  0  0  0
   -0.5924   13.2318   -3.0554 H   0  0  0  0  0  0  0  0  0  0  0  0
   -2.0255   12.9694   -4.0679 H   0  0  0  0  0  0  0  0  0  0  0  0
   -4.0548   13.1859   -2.4385 H   0  0  0  0  0  0  0  0  0  0  0  0
  1  3  1  0  0  0  0
  1  8  2  0  0  0  0
  2  8  1  0  0  0  0
  2  9  2  0  0  0  0
  3  4  2  0  0  0  0
  3  5  1  0  0  0  0
  4  6  1  0  0  0  0
  4  9  1  0  0  0  0
  5 10  1  0  0  0  0
  6  7  1  0  0  0  0
  6 10  1  0  0  0  0
  1 11  1  0  0  0  0
  2 12  1  0  0  0  0
  5 13  1  0  0  0  0
  5 14  1  0  0  0  0
  6 15  1  0  0  0  0
  7 16  1  0  0  0  0
  7 17  1  0  0  0  0
  7 18  1  0  0  0  0
 10 19  1  0  0  0  0
M  END
> <FRED Chemgauss4 score>
-5.359622

$$$$
MOL0127_3
  -OEChem-06022418023D

 23 24  0     0  0  0  0  0  0999 V2000
   -0.8352   14.8061   -0.4318 C   0  0  0  0  0  0  0  0  0  0  0  0
   -2.1961   14.9020   -0.1967 C   0  0  0  0  0  0  0  0  0  0  0  0
   -3.0186   14.5774   -1.2706 C   0  0  0  0  0  0  0  0  0  0  0  0
   -1.1965   14.1741   -2.5838 C   0  0  0  0  0  0  0  0  0  0  0  0
   -2.7545   15.2591    1.1490 C   0  0  0  0  0  0  0  0  0  0  0  0
   -4.5138   14.6780   -1.1225 C   0  0  0  0  0  0  0  0  0  0  0  0
   -4.9529   14.6895    0.3439 C   0  0  0  0  0  0  0  0  0  0  0  0
    1.0198   14.6191   -4.1342 C   0  0  0  0  0  0  0  0  0  0  0  0
   -0.3013   14.4484   -1.6174 N   0  0  0  0  0  0  0  0  0  0  0  0
   -2.5385   14.2191   -2.4829 N   0  0  0  0  0  0  0  0  0  0  0  0
   -4.1687   15.6577    1.1163 N   0  0  0  0  0  0  0  0  0  0  0  0
   -0.5343   13.6992   -4.1683 S   0  0  0  0  0  0  0  0  0  0  0  0
   -0.1125   15.0224    0.3486 H   0  0  0  0  0  0  0  0  0  0  0  0
   -2.6589   14.4021    1.8281 H   0  0  0  0  0  0  0  0  0  0  0  0
   -2.1592   16.0770    1.5772 H   0  0  0  0  0  0  0  0  0  0  0  0
   -4.8721   15.5873   -1.6166 H   0  0  0  0  0  0  0  0  0  0  0  0
   -4.9629   13.8197   -1.6364 H   0  0  0  0  0  0  0  0  0  0  0  0
   -6.0242   14.9242    0.4282 H   0  0  0  0  0  0  0  0  0  0  0  0
   -4.8198   13.6884    0.7746 H   0  0  0  0  0  0  0  0  0  0  0  0
    1.5770   14.4418   -5.0573 H   0  0  0  0  0  0  0  0  0  0  0  0
    1.6250   14.2937   -3.2845 H   0  0  0  0  0  0  0  0  0  0  0  0
    0.8161   15.6884   -4.0394 H   0  0  0  0  0  0  0  0  0  0  0  0
   -4.5282   15.6951    2.0686 H   0  0  0  0  0  0  0  0  0  0  0  0
  1  2  1  0  0  0  0
  1  9  2  0  0  0  0
  2  3  2  0  0  0  0
  2  5  1  0  0  0  0
  3  6  1  0  0  0  0
  3 10  1  0  0  0  0
  4  9  1  0  0  0  0
  4 10  2  0  0  0  0
  4 12  1  0  0  0  0
  5 11  1  0  0  0  0
  6  7  1  0  0  0  0
  7 11  1  0  0  0  0
  8 12  1  0  0  0  0
  1 13  1  0  0  0  0
  5 14  1  0  0  0  0
  5 15  1  0  0  0  0
  6 16  1  0  0  0  0
  6 17  1  0  0  0  0
  7 18  1  0  0  0  0
  7 19  1  0  0  0  0
  8 20  1  0  0  0  0
  8 21  1  0  0  0  0
  8 22  1  0  0  0  0
 11 23  1  0  0  0  0
M  END
> <FRED Chemgauss4 score>
-5.336740

$$$$
MOL0032_2
  -OEChem-06022418023D

 20 21  0     0  0  0  0  0  0999 V2000
   -2.7704   14.7123   -1.3456 C   0  0  0  0  0  0  0  0  0  0  0  0
   -3.6825   15.0322   -0.3749 C   0  0  0  0  0  0  0  0  0  0  0  0
   -3.2123   15.2568    0.9089 C   0  0  0  0  0  0  0  0  0  0  0  0
   -1.0983   14.8678    0.2050 C   0  0  0  0  0  0  0  0  0  0  0  0
   -5.1632   15.1502   -0.4247 C   0  0  0  0  0  0  0  0  0  0  0  0
   -5.4687   15.7407    0.9689 C   0  0  0  0  0  0  0  0  0  0  0  0
    1.1048   14.4519   -0.5884 C   0  0  0  0  0  0  0  0  0  0  0  0
   -1.4511   14.6261   -1.0802 N   0  0  0  0  0  0  0  0  0  0  0  0
   -1.9121   15.1811    1.2367 N   0  0  0  0  0  0  0  0  0  0  0  0
   -4.2738   15.5568    1.7754 N   0  0  0  0  0  0  0  0  0  0  0  0
    0.2447   14.7825    0.4922 O   0  0  0  0  0  0  0  0  0  0  0  0
   -3.0624   14.5109   -2.3690 H   0  0  0  0  0  0  0  0  0  0  0  0
   -5.4959   15.8200   -1.2225 H   0  0  0  0  0  0  0  0  0  0  0  0
   -5.6205   14.1628   -0.5421 H   0  0  0  0  0  0  0  0  0  0  0  0
   -5.6876   16.8119    0.8838 H   0  0  0  0  0  0  0  0  0  0  0  0
   -6.3372   15.2555    1.4258 H   0  0  0  0  0  0  0  0  0  0  0  0
    2.1380   14.4153   -0.2346 H   0  0  0  0  0  0  0  0  0  0  0  0
    1.0049   15.2016   -1.3773 H   0  0  0  0  0  0  0  0  0  0  0  0
    0.8217   13.4725   -0.9812 H   0  0  0  0  0  0  0  0  0  0  0  0
   -4.1626   15.8194    2.7424 H   0  0  0  0  0  0  0  0  0  0  0  0
  1  2  1  0  0  0  0
  1  8  2  0  0  0  0
  2  3  2  0  0  0  0
  2  5  1  0  0  0  0
  3  9  1  0  0  0  0
  3 10  1  0  0  0  0
  4  8  1  0  0  0  0
  4  9  2  0  0  0  0
  4 11  1  0  0  0  0
  5  6  1  0  0  0  0
  6 10  1  0  0  0  0
  7 11  1  0  0  0  0
  1 12  1  0  0  0  0
  5 13  1  0  0  0  0
  5 14  1  0  0  0  0
  6 15  1  0  0  0  0
  6 16  1  0  0  0  0
  7 17  1  0  0  0  0
  7 18  1  0  0  0  0
  7 19  1  0  0  0  0
 10 20  1  0  0  0  0
M  END
> <FRED Chemgauss4 score>
-5.335622

$$$$
MOL0072_1
  -OEChem-06022418023D

 22 23  0     0  0  0  0  0  0999 V2000
    1.4471   15.6938   -3.2991 C   0  0  0  0  0  0  0  0  0  0  0  0
    0.2023   15.0891   -3.3125 C   0  0  0  0  0  0  0  0  0  0  0  0
    0.0363   14.0227   -2.4350 C   0  0  0  0  0  0  0  0  0  0  0  0
    2.1942   14.2397   -1.7219 C   0  0  0  0  0  0  0  0  0  0  0  0
   -0.9263   15.5889   -4.1618 C   0  0  0  0  0  0  0  0  0  0  0  0
   -1.2714   13.2741   -2.3993 C   0  0  0  0  0  0  0  0  0  0  0  0
   -2.0697   14.5749   -4.2616 C   0  0  0  0  0  0  0  0  0  0  0  0
    3.3003   13.7632   -0.8432 C   0  0  0  0  0  0  0  0  0  0  0  0
    2.4684   15.2904   -2.5165 N   0  0  0  0  0  0  0  0  0  0  0  0
    1.0281   13.5717   -1.6338 N   0  0  0  0  0  0  0  0  0  0  0  0
   -2.3997   14.0427   -2.9381 N   0  0  0  0  0  0  0  0  0  0  0  0
    1.6682   16.5433   -3.9374 H   0  0  0  0  0  0  0  0  0  0  0  0
   -1.3169   16.5275   -3.7515 H   0  0  0  0  0  0  0  0  0  0  0  0
   -0.5349   15.7988   -5.1653 H   0  0  0  0  0  0  0  0  0  0  0  0
   -1.1747   12.3477   -2.9770 H   0  0  0  0  0  0  0  0  0  0  0  0
   -1.4848   12.9873   -1.3627 H   0  0  0  0  0  0  0  0  0  0  0  0
   -2.9589   15.0354   -4.7106 H   0  0  0  0  0  0  0  0  0  0  0  0
   -1.7735   13.7535   -4.9230 H   0  0  0  0  0  0  0  0  0  0  0  0
    3.2721   14.2824    0.1228 H   0  0  0  0  0  0  0  0  0  0  0  0
    3.2268   12.6832   -0.6595 H   0  0  0  0  0  0  0  0  0  0  0  0
    4.2808   13.9403   -1.3045 H   0  0  0  0  0  0  0  0  0  0  0  0
   -3.2148   13.4339   -3.0139 H   0  0  0  0  0  0  0  0  0  0  0  0
  1  2  1  0  0  0  0
  1  9  2  0  0  0  0
  2  3  2  0  0  0  0
  2  5  1  0  0  0  0
  3  6  1  0  0  0  0
  3 10  1  0  0  0  0
  4  8  1  0  0  0  0
  4  9  1  0  0  0  0
  4 10  2  0  0  0  0
  5  7  1  0  0  0  0
  6 11  1  0  0  0  0
  7 11  1  0  0  0  0
  1 12  1  0  0  0  0
  5 13  1  0  0  0  0
  5 14  1  0  0  0  0
  6 15  1  0  0  0  0
  6 16  1  0  0  0  0
  7 17  1  0  0  0  0
  7 18  1  0  0  0  0
  8 19  1  0  0  0  0
  8 20  1  0  0  0  0
  8 21  1  0  0  0  0
 11 22  1  0  0  0  0
M  END
> <FRED Chemgauss4 score>
-5.293664

$$$$
MOL0080_2
  -OEChem-06022418023D

 23 24  0     0  0  0  0  0  0999 V2000
    1.7778   14.0244   -1.4568 C   0  0  0  0  0  0  0  0  0  0  0  0
   -0.0249   14.8107   -3.2873 C   0  0  0  0  0  0  0  0  0  0  0  0
    1.2281   15.4066   -3.1887 C   0  0  0  0  0  0  0  0  0  0  0  0
   -0.2889   13.8054   -2.3734 C   0  0  0  0  0  0  0  0  0  0  0  0
   -1.0435   15.2857   -4.2781 C   0  0  0  0  0  0  0  0  0  0  0  0
    1.6258   16.4880   -4.1604 C   0  0  0  0  0  0  0  0  0  0  0  0
   -0.4213   16.1462   -5.3815 C   0  0  0  0  0  0  0  0  0  0  0  0
   -2.5203   13.7534   -1.5524 C   0  0  0  0  0  0  0  0  0  0  0  0
    2.1544   15.0194   -2.2827 N   0  0  0  0  0  0  0  0  0  0  0  0
    0.5942   13.3846   -1.4454 N   0  0  0  0  0  0  0  0  0  0  0  0
    0.4821   17.1439   -4.8052 N   0  0  0  0  0  0  0  0  0  0  0  0
   -1.5090   13.1819   -2.3738 O   0  0  0  0  0  0  0  0  0  0  0  0
    2.5074   13.7042   -0.7230 H   0  0  0  0  0  0  0  0  0  0  0  0
   -1.5468   14.4308   -4.7446 H   0  0  0  0  0  0  0  0  0  0  0  0
   -1.8011   15.8711   -3.7419 H   0  0  0  0  0  0  0  0  0  0  0  0
    2.2129   17.2497   -3.6354 H   0  0  0  0  0  0  0  0  0  0  0  0
    2.2771   16.0503   -4.9264 H   0  0  0  0  0  0  0  0  0  0  0  0
    0.1229   15.5197   -6.0998 H   0  0  0  0  0  0  0  0  0  0  0  0
   -1.2138   16.6525   -5.9434 H   0  0  0  0  0  0  0  0  0  0  0  0
   -3.4379   13.1668   -1.6416 H   0  0  0  0  0  0  0  0  0  0  0  0
   -2.7032   14.7852   -1.8628 H   0  0  0  0  0  0  0  0  0  0  0  0
   -2.1828   13.7420   -0.5133 H   0  0  0  0  0  0  0  0  0  0  0  0
   -0.0242   17.6949   -4.1116 H   0  0  0  0  0  0  0  0  0  0  0  0
  1  9  1  0  0  0  0
  1 10  2  0  0  0  0
  2  3  1  0  0  0  0
  2  4  2  0  0  0  0
  2  5  1  0  0  0  0
  3  6  1  0  0  0  0
  3  9  2  0  0  0  0
  4 10  1  0  0  0  0
  4 12  1  0  0  0  0
  5  7  1  0  0  0  0
  6 11  1  0  0  0  0
  7 11  1  0  0  0  0
  8 12  1  0  0  0  0
  1 13  1  0  0  0  0
  5 14  1  0  0  0  0
  5 15  1  0  0  0  0
  6 16  1  0  0  0  0
  6 17  1  0  0  0  0
  7 18  1  0  0  0  0
  7 19  1  0  0  0  0
  8 20  1  0  0  0  0
  8 21  1  0  0  0  0
  8 22  1  0  0  0  0
 11 23  1  0  0  0  0
M  END
> <FRED Chemgauss4 score>
-5.293517

$$$$
MOL0083_1
  -OEChem-06022418023D

 25 26  0     0  0  0  0  0  0999 V2000
   -0.1810   15.2267   -4.1035 C   0  0  0  0  0  0  0  0  0  0  0  0
    0.9309   16.0043   -3.8027 C   0  0  0  0  0  0  0  0  0  0  0  0
    0.8541   13.3982   -3.1822 C   0  0  0  0  0  0  0  0  0  0  0  0
    1.9502   14.1699   -2.8728 C   0  0  0  0  0  0  0  0  0  0  0  0
   -1.3484   15.8181   -4.8427 C   0  0  0  0  0  0  0  0  0  0  0  0
    0.9439   17.4782   -4.1033 C   0  0  0  0  0  0  0  0  0  0  0  0
   -1.3605   17.3472   -4.7895 C   0  0  0  0  0  0  0  0  0  0  0  0
    0.8031   11.9477   -2.8424 C   0  0  0  0  0  0  0  0  0  0  0  0
    3.1406   13.5908   -2.1883 C   0  0  0  0  0  0  0  0  0  0  0  0
   -0.2256   13.9097   -3.8036 N   0  0  0  0  0  0  0  0  0  0  0  0
    2.0064   15.4820   -3.1724 N   0  0  0  0  0  0  0  0  0  0  0  0
   -0.0361   17.8763   -5.1201 N   0  0  0  0  0  0  0  0  0  0  0  0
   -1.3269   15.4898   -5.8881 H   0  0  0  0  0  0  0  0  0  0  0  0
   -2.2681   15.4260   -4.3905 H   0  0  0  0  0  0  0  0  0  0  0  0
    0.7391   18.0383   -3.1839 H   0  0  0  0  0  0  0  0  0  0  0  0
    1.9498   17.7609   -4.4353 H   0  0  0  0  0  0  0  0  0  0  0  0
   -2.1101   17.7549   -5.4794 H   0  0  0  0  0  0  0  0  0  0  0  0
   -1.6450   17.6772   -3.7844 H   0  0  0  0  0  0  0  0  0  0  0  0
    0.3721   11.8035   -1.8438 H   0  0  0  0  0  0  0  0  0  0  0  0
    0.1958   11.3891   -3.5668 H   0  0  0  0  0  0  0  0  0  0  0  0
    1.8053   11.4990   -2.8563 H   0  0  0  0  0  0  0  0  0  0  0  0
    3.8624   13.2174   -2.9254 H   0  0  0  0  0  0  0  0  0  0  0  0
    3.6423   14.3379   -1.5589 H   0  0  0  0  0  0  0  0  0  0  0  0
    2.8570   12.7600   -1.5284 H   0  0  0  0  0  0  0  0  0  0  0  0
   -0.0817   18.8947   -5.1619 H   0  0  0  0  0  0  0  0  0  0  0  0
  1  2  1  0  0  0  0
  1  5  1  0  0  0  0
  1 10  2  0  0  0  0
  2  6  1  0  0  0  0
  2 11  2  0  0  0  0
  3  4  2  0  0  0  0
  3  8  1  0  0  0  0
  3 10  1  0  0  0  0
  4  9  1  0  0  0  0
  4 11  1  0  0  0  0
  5  7  1  0  0  0  0
  6 12  1  0  0  0  0
  7 12  1  0  0  0  0
  5 13  1  0  0  0  0
  5 14  1  0  0  0  0
  6 15  1  0  0  0  0
  6 16  1  0  0  0  0
  7 17  1  0  0  0  0
  7 18  1  0  0  0  0
  8 19  1  0  0  0  0
  8 20  1  0  0  0  0
  8 21  1  0  0  0  0
  9 22  1  0  0  0  0
  9 23  1  0  0  0  0
  9 24  1  0  0  0  0
 12 25  1  0  0  0  0
M  END
> <FRED Chemgauss4 score>
-5.291750

$$$$
MOL0128_3
  -OEChem-06022418023D

 25 26  0     0  0  0  0  0  0999 V2000
   -2.8261   14.8656   -1.1996 C   0  0  0  0  0  0  0  0  0  0  0  0
   -3.7381   15.1854   -0.2289 C   0  0  0  0  0  0  0  0  0  0  0  0
   -3.2679   15.4100    1.0550 C   0  0  0  0  0  0  0  0  0  0  0  0
   -1.1539   15.0210    0.3510 C   0  0  0  0  0  0  0  0  0  0  0  0
   -5.2188   15.3034   -0.2786 C   0  0  0  0  0  0  0  0  0  0  0  0
   -5.5243   15.8940    1.1150 C   0  0  0  0  0  0  0  0  0  0  0  0
    0.8614   16.2339    1.2571 C   0  0  0  0  0  0  0  0  0  0  0  0
    1.1401   14.5079   -0.5590 C   0  0  0  0  0  0  0  0  0  0  0  0
    0.3018   14.9275    0.6631 C   0  0  0  0  0  0  0  0  0  0  0  0
   -1.5067   14.7793   -0.9341 N   0  0  0  0  0  0  0  0  0  0  0  0
   -1.9677   15.3343    1.3827 N   0  0  0  0  0  0  0  0  0  0  0  0
   -4.3294   15.7101    1.9214 N   0  0  0  0  0  0  0  0  0  0  0  0
   -3.1179   14.6638   -2.2229 H   0  0  0  0  0  0  0  0  0  0  0  0
   -5.5517   15.9734   -1.0763 H   0  0  0  0  0  0  0  0  0  0  0  0
   -5.6765   14.3163   -0.3955 H   0  0  0  0  0  0  0  0  0  0  0  0
   -5.7428   16.9651    1.0298 H   0  0  0  0  0  0  0  0  0  0  0  0
   -6.3924   15.4086    1.5720 H   0  0  0  0  0  0  0  0  0  0  0  0
    0.7399   17.0755    0.5665 H   0  0  0  0  0  0  0  0  0  0  0  0
    1.9287   16.1443    1.4870 H   0  0  0  0  0  0  0  0  0  0  0  0
    0.3384   16.4864    2.1863 H   0  0  0  0  0  0  0  0  0  0  0  0
    1.0251   15.2359   -1.3699 H   0  0  0  0  0  0  0  0  0  0  0  0
    0.8294   13.5292   -0.9407 H   0  0  0  0  0  0  0  0  0  0  0  0
    2.2062   14.4457   -0.3147 H   0  0  0  0  0  0  0  0  0  0  0  0
    0.4715   14.1479    1.4299 H   0  0  0  0  0  0  0  0  0  0  0  0
   -4.2185   15.9721    2.8885 H   0  0  0  0  0  0  0  0  0  0  0  0
  1  2  1  0  0  0  0
  1 10  2  0  0  0  0
  2  3  2  0  0  0  0
  2  5  1  0  0  0  0
  3 11  1  0  0  0  0
  3 12  1  0  0  0  0
  4  9  1  0  0  0  0
  4 10  1  0  0  0  0
  4 11  2  0  0  0  0
  5  6  1  0  0  0  0
  6 12  1  0  0  0  0
  7  9  1  0  0  0  0
  8  9  1  0  0  0  0
  1 13  1  0  0  0  0
  5 14  1  0  0  0  0
  5 15  1  0  0  0  0
  6 16  1  0  0  0  0
  6 17  1  0  0  0  0
  7 18  1  0  0  0  0
  7 19  1  0  0  0  0
  7 20  1  0  0  0  0
  8 21  1  0  0  0  0
  8 22  1  0  0  0  0
  8 23  1  0  0  0  0
  9 24  1  0  0  0  0
 12 25  1  0  0  0  0
M  END
> <FRED Chemgauss4 score>
-5.261880

$$$$
MOL0199_4
  -OEChem-06022418023D

 23 24  0     1  0  0  0  0  0999 V2000
   -1.8199   11.8353   -4.4936 C   0  0  0  0  0  0  0  0  0  0  0  0
   -0.9926   12.9331   -4.7028 C   0  0  0  0  0  0  0  0  0  0  0  0
   -1.5105   10.9798   -3.4485 C   0  0  0  0  0  0  0  0  0  0  0  0
    0.3266   12.2252   -2.8548 C   0  0  0  0  0  0  0  0  0  0  0  0
    0.1033   13.1389   -3.8722 C   0  0  0  0  0  0  0  0  0  0  0  0
    0.3734   15.5841   -4.6440 C   0  0  0  0  0  0  0  0  0  0  0  0
    1.3800   16.6772   -4.3318 C   0  0  0  0  0  0  0  0  0  0  0  0
    1.6582   14.8910   -2.8021 C   0  0  0  0  0  0  0  0  0  0  0  0
    1.0229   14.3252   -4.0736 C   0  0  1  0  0  0  0  0  0  0  0  0
   -0.4548   11.1471   -2.6208 N   0  0  0  0  0  0  0  0  0  0  0  0
    2.1225   16.2405   -3.1442 N   0  0  0  0  0  0  0  0  0  0  0  0
   -2.6800   11.6551   -5.1283 H   0  0  0  0  0  0  0  0  0  0  0  0
   -1.2094   13.6223   -5.5144 H   0  0  0  0  0  0  0  0  0  0  0  0
   -2.1246   10.1090   -3.2441 H   0  0  0  0  0  0  0  0  0  0  0  0
    1.1660   12.3339   -2.1751 H   0  0  0  0  0  0  0  0  0  0  0  0
   -0.6073   15.8113   -4.2234 H   0  0  0  0  0  0  0  0  0  0  0  0
    0.2658   15.4790   -5.7271 H   0  0  0  0  0  0  0  0  0  0  0  0
    2.0603   16.8708   -5.1826 H   0  0  0  0  0  0  0  0  0  0  0  0
    0.8674   17.6353   -4.1167 H   0  0  0  0  0  0  0  0  0  0  0  0
    0.9393   14.9545   -1.9634 H   0  0  0  0  0  0  0  0  0  0  0  0
    2.4947   14.2631   -2.4473 H   0  0  0  0  0  0  0  0  0  0  0  0
    1.8347   14.0115   -4.7736 H   0  0  0  0  0  0  0  0  0  0  0  0
    3.1216   16.1887   -3.3870 H   0  0  0  0  0  0  0  0  0  0  0  0
  1  2  2  0  0  0  0
  1  3  1  0  0  0  0
  2  5  1  0  0  0  0
  3 10  2  0  0  0  0
  4  5  2  0  0  0  0
  4 10  1  0  0  0  0
  5  9  1  0  0  0  0
  6  7  1  0  0  0  0
  6  9  1  0  0  0  0
  7 11  1  0  0  0  0
  8  9  1  0  0  0  0
  8 11  1  0  0  0  0
  1 12  1  0  0  0  0
  2 13  1  0  0  0  0
  3 14  1  0  0  0  0
  4 15  1  0  0  0  0
  6 16  1  0  0  0  0
  6 17  1  0  0  0  0
  7 18  1  0  0  0  0
  7 19  1  0  0  0  0
  8 20  1  0  0  0  0
  8 21  1  0  0  0  0
  9 22  1  0  0  0  0
 11 23  1  0  0  0  0
M  END
> <FRED Chemgauss4 score>
-5.246883

$$$$
MOL0144_1
  -OEChem-06022418023D

 19 20  0     0  0  0  0  0  0999 V2000
   -0.1948   15.2928   -4.2304 C   0  0  0  0  0  0  0  0  0  0  0  0
    0.9195   16.0663   -3.9282 C   0  0  0  0  0  0  0  0  0  0  0  0
    0.8272   13.4634   -3.2964 C   0  0  0  0  0  0  0  0  0  0  0  0
    1.9257   14.2312   -2.9856 C   0  0  0  0  0  0  0  0  0  0  0  0
   -1.3561   15.8865   -4.9774 C   0  0  0  0  0  0  0  0  0  0  0  0
    0.9410   17.5388   -4.2353 C   0  0  0  0  0  0  0  0  0  0  0  0
   -1.3609   17.4159   -4.9312 C   0  0  0  0  0  0  0  0  0  0  0  0
   -0.2473   13.9774   -3.9249 N   0  0  0  0  0  0  0  0  0  0  0  0
    1.9897   15.5416   -3.2908 N   0  0  0  0  0  0  0  0  0  0  0  0
   -0.0325   17.9370   -5.2583 N   0  0  0  0  0  0  0  0  0  0  0  0
    0.6896   11.7932   -2.9280 Cl  0  0  0  0  0  0  0  0  0  0  0  0
    3.3217   13.6299   -2.1895 Cl  0  0  0  0  0  0  0  0  0  0  0  0
   -1.3311   15.5534   -6.0212 H   0  0  0  0  0  0  0  0  0  0  0  0
   -2.2797   15.5012   -4.5282 H   0  0  0  0  0  0  0  0  0  0  0  0
    0.7353   18.1040   -3.3193 H   0  0  0  0  0  0  0  0  0  0  0  0
    1.9499   17.8149   -4.5646 H   0  0  0  0  0  0  0  0  0  0  0  0
   -2.1058   17.8242   -5.6258 H   0  0  0  0  0  0  0  0  0  0  0  0
   -1.6482   17.7510   -3.9287 H   0  0  0  0  0  0  0  0  0  0  0  0
   -0.0732   18.9554   -5.3051 H   0  0  0  0  0  0  0  0  0  0  0  0
  1  2  1  0  0  0  0
  1  5  1  0  0  0  0
  1  8  2  0  0  0  0
  2  6  1  0  0  0  0
  2  9  2  0  0  0  0
  3  4  2  0  0  0  0
  3  8  1  0  0  0  0
  3 11  1  0  0  0  0
  4  9  1  0  0  0  0
  4 12  1  0  0  0  0
  5  7  1  0  0  0  0
  6 10  1  0  0  0  0
  7 10  1  0  0  0  0
  5 13  1  0  0  0  0
  5 14  1  0  0  0  0
  6 15  1  0  0  0  0
  6 16  1  0  0  0  0
  7 17  1  0  0  0  0
  7 18  1  0  0  0  0
 10 19  1  0  0  0  0
M  END
> <FRED Chemgauss4 score>
-5.241246

$$$$
MOL0186_2
  -OEChem-06022418023D

 20 21  0     0  0  0  0  0  0999 V2000
   -3.2650   14.4381   -1.2116 C   0  0  0  0  0  0  0  0  0  0  0  0
   -4.2153   14.4995   -0.2269 C   0  0  0  0  0  0  0  0  0  0  0  0
   -3.7898   14.7196    1.0732 C   0  0  0  0  0  0  0  0  0  0  0  0
   -1.6458   14.8101    0.3583 C   0  0  0  0  0  0  0  0  0  0  0  0
    0.7275   14.9394   -0.2466 C   0  0  0  0  0  0  0  0  0  0  0  0
   -0.2355   14.9818    0.6648 C   0  0  0  0  0  0  0  0  0  0  0  0
   -5.6903   14.3244   -0.2788 C   0  0  0  0  0  0  0  0  0  0  0  0
   -6.0969   14.7402    1.1516 C   0  0  0  0  0  0  0  0  0  0  0  0
   -1.9529   14.5967   -0.9435 N   0  0  0  0  0  0  0  0  0  0  0  0
   -2.4981   14.8801    1.4040 N   0  0  0  0  0  0  0  0  0  0  0  0
   -4.8834   14.7395    1.9513 N   0  0  0  0  0  0  0  0  0  0  0  0
   -3.5186   14.2572   -2.2489 H   0  0  0  0  0  0  0  0  0  0  0  0
    1.7550   15.0906    0.0704 H   0  0  0  0  0  0  0  0  0  0  0  0
    0.5644   14.7753   -1.3051 H   0  0  0  0  0  0  0  0  0  0  0  0
    0.0222   15.1810    1.6926 H   0  0  0  0  0  0  0  0  0  0  0  0
   -6.1551   14.9707   -1.0285 H   0  0  0  0  0  0  0  0  0  0  0  0
   -5.9433   13.2768   -0.4705 H   0  0  0  0  0  0  0  0  0  0  0  0
   -6.5247   15.7499    1.1426 H   0  0  0  0  0  0  0  0  0  0  0  0
   -6.8483   14.0604    1.5659 H   0  0  0  0  0  0  0  0  0  0  0  0
   -4.8196   14.9482    2.9354 H   0  0  0  0  0  0  0  0  0  0  0  0
  1  2  1  0  0  0  0
  1  9  2  0  0  0  0
  2  3  2  0  0  0  0
  2  7  1  0  0  0  0
  3 10  1  0  0  0  0
  3 11  1  0  0  0  0
  4  6  1  0  0  0  0
  4  9  1  0  0  0  0
  4 10  2  0  0  0  0
  5  6  2  0  0  0  0
  7  8  1  0  0  0  0
  8 11  1  0  0  0  0
  1 12  1  0  0  0  0
  5 13  1  0  0  0  0
  5 14  1  0  0  0  0
  6 15  1  0  0  0  0
  7 16  1  0  0  0  0
  7 17  1  0  0  0  0
  8 18  1  0  0  0  0
  8 19  1  0  0  0  0
 11 20  1  0  0  0  0
M  END
> <FRED Chemgauss4 score>
-5.225162

$$$$
MOL0025_1
  -OEChem-06022418023D

 14 15  0     0  0  0  0  0  0999 V2000
    2.2093   14.0348   -1.9809 C   0  0  0  0  0  0  0  0  0  0  0  0
    0.4251   12.4902   -4.6708 C   0  0  0  0  0  0  0  0  0  0  0  0
    2.8292   15.0309   -3.9173 C   0  0  0  0  0  0  0  0  0  0  0  0
   -0.1949   11.4940   -2.7343 C   0  0  0  0  0  0  0  0  0  0  0  0
    1.3424   13.1797   -2.6340 C   0  0  0  0  0  0  0  0  0  0  0  0
    1.2920   13.3453   -4.0177 C   0  0  0  0  0  0  0  0  0  0  0  0
    2.9684   14.9719   -2.5850 N   0  0  0  0  0  0  0  0  0  0  0  0
   -0.3341   11.5530   -4.0666 N   0  0  0  0  0  0  0  0  0  0  0  0
    0.6083   12.2617   -1.9764 N   0  0  0  0  0  0  0  0  0  0  0  0
    2.0261   14.2632   -4.6752 N   0  0  0  0  0  0  0  0  0  0  0  0
    2.3251   13.9904   -0.9014 H   0  0  0  0  0  0  0  0  0  0  0  0
    0.3095   12.5347   -5.7502 H   0  0  0  0  0  0  0  0  0  0  0  0
    3.4235   15.7719   -4.4371 H   0  0  0  0  0  0  0  0  0  0  0  0
   -0.7893   10.7531   -2.2145 H   0  0  0  0  0  0  0  0  0  0  0  0
  1  5  1  0  0  0  0
  1  7  2  0  0  0  0
  2  6  1  0  0  0  0
  2  8  2  0  0  0  0
  3  7  1  0  0  0  0
  3 10  2  0  0  0  0
  4  8  1  0  0  0  0
  4  9  2  0  0  0  0
  5  6  2  0  0  0  0
  5  9  1  0  0  0  0
  6 10  1  0  0  0  0
  1 11  1  0  0  0  0
  2 12  1  0  0  0  0
  3 13  1  0  0  0  0
  4 14  1  0  0  0  0
M  END
> <FRED Chemgauss4 score>
-5.199418

$$$$
MOL0054_3
  -OEChem-06022418023D

 20 21  0     0  0  0  0  0  0999 V2000
   -3.0744   14.7252   -1.2547 C   0  0  0  0  0  0  0  0  0  0  0  0
   -4.0168   15.0450   -0.3134 C   0  0  0  0  0  0  0  0  0  0  0  0
   -3.5875   15.2697    0.9847 C   0  0  0  0  0  0  0  0  0  0  0  0
   -1.4523   14.8806    0.3482 C   0  0  0  0  0  0  0  0  0  0  0  0
   -5.4952   15.1630   -0.4101 C   0  0  0  0  0  0  0  0  0  0  0  0
   -5.8447   15.7536    0.9732 C   0  0  0  0  0  0  0  0  0  0  0  0
    1.0069   15.2629   -0.8004 C   0  0  0  0  0  0  0  0  0  0  0  0
   -1.7641   14.6390   -0.9475 N   0  0  0  0  0  0  0  0  0  0  0  0
   -2.2984   15.1939    1.3536 N   0  0  0  0  0  0  0  0  0  0  0  0
   -4.6760   15.5697    1.8171 N   0  0  0  0  0  0  0  0  0  0  0  0
    0.2755   14.7702    0.7756 S   0  0  0  0  0  0  0  0  0  0  0  0
   -3.3338   14.5237   -2.2868 H   0  0  0  0  0  0  0  0  0  0  0  0
   -5.8024   15.8330   -1.2181 H   0  0  0  0  0  0  0  0  0  0  0  0
   -5.9487   14.1755   -0.5419 H   0  0  0  0  0  0  0  0  0  0  0  0
   -6.0608   16.8248    0.8812 H   0  0  0  0  0  0  0  0  0  0  0  0
   -6.7273   15.2683    1.4023 H   0  0  0  0  0  0  0  0  0  0  0  0
    2.0969   15.2525   -0.7238 H   0  0  0  0  0  0  0  0  0  0  0  0
    0.6777   16.2713   -1.0632 H   0  0  0  0  0  0  0  0  0  0  0  0
    0.6972   14.5696   -1.5862 H   0  0  0  0  0  0  0  0  0  0  0  0
   -4.5956   15.8322    2.7869 H   0  0  0  0  0  0  0  0  0  0  0  0
  1  2  1  0  0  0  0
  1  8  2  0  0  0  0
  2  3  2  0  0  0  0
  2  5  1  0  0  0  0
  3  9  1  0  0  0  0
  3 10  1  0  0  0  0
  4  8  1  0  0  0  0
  4  9  2  0  0  0  0
  4 11  1  0  0  0  0
  5  6  1  0  0  0  0
  6 10  1  0  0  0  0
  7 11  1  0  0  0  0
  1 12  1  0  0  0  0
  5 13  1  0  0  0  0
  5 14  1  0  0  0  0
  6 15  1  0  0  0  0
  6 16  1  0  0  0  0
  7 17  1  0  0  0  0
  7 18  1  0  0  0  0
  7 19  1  0  0  0  0
 10 20  1  0  0  0  0
M  END
> <FRED Chemgauss4 score>
-5.191922

$$$$
MOL0189_1
  -OEChem-06022418023D

 19 20  0     1  0  0  0  0  0999 V2000
    2.9162   13.9502   -2.2025 C   0  0  0  0  0  0  0  0  0  0  0  0
    1.8521   13.0923   -2.3738 C   0  0  0  0  0  0  0  0  0  0  0  0
    1.8100   15.5599   -3.3919 C   0  0  0  0  0  0  0  0  0  0  0  0
    0.7462   14.7019   -3.5640 C   0  0  0  0  0  0  0  0  0  0  0  0
   -1.8378   14.1934   -4.2281 C   0  0  0  0  0  0  0  0  0  0  0  0
   -2.5863   15.5339   -4.1441 C   0  0  0  0  0  0  0  0  0  0  0  0
   -0.5697   15.0702   -4.3545 C   0  0  1  0  0  0  0  0  0  0  0  0
    2.9142   15.1994   -2.7084 N   0  0  0  0  0  0  0  0  0  0  0  0
    0.7480   13.4528   -3.0577 N   0  0  0  0  0  0  0  0  0  0  0  0
   -1.3292   16.1466   -3.6605 N   0  0  0  0  0  0  0  0  0  0  0  0
    3.8031   13.6598   -1.6531 H   0  0  0  0  0  0  0  0  0  0  0  0
    1.8543   12.0887   -1.9669 H   0  0  0  0  0  0  0  0  0  0  0  0
    1.8121   16.5647   -3.7970 H   0  0  0  0  0  0  0  0  0  0  0  0
   -1.8956   13.5913   -3.3133 H   0  0  0  0  0  0  0  0  0  0  0  0
   -2.0774   13.5651   -5.0897 H   0  0  0  0  0  0  0  0  0  0  0  0
   -2.9219   15.9223   -5.1128 H   0  0  0  0  0  0  0  0  0  0  0  0
   -3.4179   15.5697   -3.4357 H   0  0  0  0  0  0  0  0  0  0  0  0
   -0.3429   15.3275   -5.4055 H   0  0  0  0  0  0  0  0  0  0  0  0
   -1.1523   17.0876   -4.0084 H   0  0  0  0  0  0  0  0  0  0  0  0
  1  2  1  0  0  0  0
  1  8  2  0  0  0  0
  2  9  2  0  0  0  0
  3  4  2  0  0  0  0
  3  8  1  0  0  0  0
  4  7  1  0  0  0  0
  4  9  1  0  0  0  0
  5  6  1  0  0  0  0
  5  7  1  0  0  0  0
  6 10  1  0  0  0  0
  7 10  1  0  0  0  0
  1 11  1  0  0  0  0
  2 12  1  0  0  0  0
  3 13  1  0  0  0  0
  5 14  1  0  0  0  0
  5 15  1  0  0  0  0
  6 16  1  0  0  0  0
  6 17  1  0  0  0  0
  7 18  1  0  0  0  0
 10 19  1  0  0  0  0
M  END
> <FRED Chemgauss4 score>
-5.190780

$$$$
MOL0131_3
  -OEChem-06022418023D

 20 21  0     1  0  0  0  0  0999 V2000
    1.6557   12.9250   -2.5565 C   0  0  0  0  0  0  0  0  0  0  0  0
    0.7216   13.5607   -3.3668 C   0  0  0  0  0  0  0  0  0  0  0  0
    2.7473   13.6610   -2.1246 C   0  0  0  0  0  0  0  0  0  0  0  0
    2.0301   15.5421   -3.2315 C   0  0  0  0  0  0  0  0  0  0  0  0
    0.9050   14.8942   -3.7155 C   0  0  0  0  0  0  0  0  0  0  0  0
   -1.6564   15.4917   -4.3931 C   0  0  0  0  0  0  0  0  0  0  0  0
   -1.7063   17.0098   -4.6319 C   0  0  0  0  0  0  0  0  0  0  0  0
   -0.1361   15.6457   -4.6339 C   0  0  1  0  0  0  0  0  0  0  0  0
    2.9593   14.9578   -2.4423 N   0  0  0  0  0  0  0  0  0  0  0  0
   -0.2856   17.0689   -4.2222 N   0  0  0  0  0  0  0  0  0  0  0  0
    1.5333   11.8863   -2.2720 H   0  0  0  0  0  0  0  0  0  0  0  0
   -0.1457   13.0116   -3.7224 H   0  0  0  0  0  0  0  0  0  0  0  0
    3.5044   13.2114   -1.4907 H   0  0  0  0  0  0  0  0  0  0  0  0
    2.2249   16.5828   -3.4708 H   0  0  0  0  0  0  0  0  0  0  0  0
   -1.9425   15.1877   -3.3789 H   0  0  0  0  0  0  0  0  0  0  0  0
   -2.1914   14.8740   -5.1192 H   0  0  0  0  0  0  0  0  0  0  0  0
   -1.8760   17.2946   -5.6769 H   0  0  0  0  0  0  0  0  0  0  0  0
   -2.3935   17.5687   -3.9915 H   0  0  0  0  0  0  0  0  0  0  0  0
    0.1356   15.5393   -5.6981 H   0  0  0  0  0  0  0  0  0  0  0  0
    0.2857   17.7257   -4.7536 H   0  0  0  0  0  0  0  0  0  0  0  0
  1  2  2  0  0  0  0
  1  3  1  0  0  0  0
  2  5  1  0  0  0  0
  3  9  2  0  0  0  0
  4  5  2  0  0  0  0
  4  9  1  0  0  0  0
  5  8  1  0  0  0  0
  6  7  1  0  0  0  0
  6  8  1  0  0  0  0
  7 10  1  0  0  0  0
  8 10  1  0  0  0  0
  1 11  1  0  0  0  0
  2 12  1  0  0  0  0
  3 13  1  0  0  0  0
  4 14  1  0  0  0  0
  6 15  1  0  0  0  0
  6 16  1  0  0  0  0
  7 17  1  0  0  0  0
  7 18  1  0  0  0  0
  8 19  1  0  0  0  0
 10 20  1  0  0  0  0
M  END
> <FRED Chemgauss4 score>
-5.189809

$$$$
MOL0048_1
  -OEChem-06022418023D

 20 21  0     0  0  0  0  0  0999 V2000
   -0.8202   14.4181   -0.4336 C   0  0  0  0  0  0  0  0  0  0  0  0
   -0.5898   14.6644    0.9103 C   0  0  0  0  0  0  0  0  0  0  0  0
   -2.7586   15.3389    1.2552 C   0  0  0  0  0  0  0  0  0  0  0  0
   -2.1025   14.6465   -0.9343 C   0  0  0  0  0  0  0  0  0  0  0  0
   -3.0975   15.1365   -0.0782 C   0  0  0  0  0  0  0  0  0  0  0  0
   -2.4030   14.4291   -2.3946 C   0  0  0  0  0  0  0  0  0  0  0  0
   -4.4999   15.3681   -0.5704 C   0  0  0  0  0  0  0  0  0  0  0  0
   -3.9058   14.3681   -2.6804 C   0  0  0  0  0  0  0  0  0  0  0  0
   -1.5283   15.1173    1.7700 N   0  0  0  0  0  0  0  0  0  0  0  0
   -4.5932   15.4846   -2.0309 N   0  0  0  0  0  0  0  0  0  0  0  0
   -0.0210   14.0583   -1.0727 H   0  0  0  0  0  0  0  0  0  0  0  0
    0.3909   14.4981    1.3441 H   0  0  0  0  0  0  0  0  0  0  0  0
   -3.4922   15.6953    1.9720 H   0  0  0  0  0  0  0  0  0  0  0  0
   -1.9550   15.2550   -2.9616 H   0  0  0  0  0  0  0  0  0  0  0  0
   -1.9395   13.4961   -2.7368 H   0  0  0  0  0  0  0  0  0  0  0  0
   -5.1359   14.5439   -0.2246 H   0  0  0  0  0  0  0  0  0  0  0  0
   -4.8887   16.2951   -0.1342 H   0  0  0  0  0  0  0  0  0  0  0  0
   -4.0672   14.4196   -3.7627 H   0  0  0  0  0  0  0  0  0  0  0  0
   -4.3271   13.4136   -2.3393 H   0  0  0  0  0  0  0  0  0  0  0  0
   -5.5761   15.4851   -2.3020 H   0  0  0  0  0  0  0  0  0  0  0  0
  1  2  1  0  0  0  0
  1  4  2  0  0  0  0
  2  9  2  0  0  0  0
  3  5  2  0  0  0  0
  3  9  1  0  0  0  0
  4  5  1  0  0  0  0
  4  6  1  0  0  0  0
  5  7  1  0  0  0  0
  6  8  1  0  0  0  0
  7 10  1  0  0  0  0
  8 10  1  0  0  0  0
  1 11  1  0  0  0  0
  2 12  1  0  0  0  0
  3 13  1  0  0  0  0
  6 14  1  0  0  0  0
  6 15  1  0  0  0  0
  7 16  1  0  0  0  0
  7 17  1  0  0  0  0
  8 18  1  0  0  0  0
  8 19  1  0  0  0  0
 10 20  1  0  0  0  0
M  END
> <FRED Chemgauss4 score>
-5.187654

$$$$
MOL0067_1
  -OEChem-06022418023D

 20 21  0     0  0  0  0  0  0999 V2000
    2.7825   14.8413   -2.5805 C   0  0  0  0  0  0  0  0  0  0  0  0
    1.7421   15.2665   -3.3991 C   0  0  0  0  0  0  0  0  0  0  0  0
    2.5395   13.7833   -1.7196 C   0  0  0  0  0  0  0  0  0  0  0  0
    0.3667   13.5809   -2.4381 C   0  0  0  0  0  0  0  0  0  0  0  0
    0.5079   14.6296   -3.3326 C   0  0  0  0  0  0  0  0  0  0  0  0
   -2.1276   15.1353   -3.6561 C   0  0  0  0  0  0  0  0  0  0  0  0
   -0.9331   16.6003   -4.4919 C   0  0  0  0  0  0  0  0  0  0  0  0
   -0.6965   15.0881   -4.2493 C   0  0  0  0  0  0  0  0  0  0  0  0
    1.3542   13.1398   -1.6269 N   0  0  0  0  0  0  0  0  0  0  0  0
   -2.3903   16.3378   -4.4796 N   0  0  0  0  0  0  0  0  0  0  0  0
    3.7530   15.3229   -2.6153 H   0  0  0  0  0  0  0  0  0  0  0  0
    1.9001   16.0936   -4.0855 H   0  0  0  0  0  0  0  0  0  0  0  0
    3.3180   13.4138   -1.0603 H   0  0  0  0  0  0  0  0  0  0  0  0
   -0.5735   13.0468   -2.3433 H   0  0  0  0  0  0  0  0  0  0  0  0
   -2.7605   14.2738   -3.8900 H   0  0  0  0  0  0  0  0  0  0  0  0
   -2.1833   15.3267   -2.5772 H   0  0  0  0  0  0  0  0  0  0  0  0
   -0.6042   17.2643   -3.6828 H   0  0  0  0  0  0  0  0  0  0  0  0
   -0.5467   16.9892   -5.4394 H   0  0  0  0  0  0  0  0  0  0  0  0
   -0.6682   14.5247   -5.1965 H   0  0  0  0  0  0  0  0  0  0  0  0
   -2.7610   16.1123   -5.4035 H   0  0  0  0  0  0  0  0  0  0  0  0
  1  2  2  0  0  0  0
  1  3  1  0  0  0  0
  2  5  1  0  0  0  0
  3  9  2  0  0  0  0
  4  5  2  0  0  0  0
  4  9  1  0  0  0  0
  5  8  1  0  0  0  0
  6  8  1  0  0  0  0
  6 10  1  0  0  0  0
  7  8  1  0  0  0  0
  7 10  1  0  0  0  0
  1 11  1  0  0  0  0
  2 12  1  0  0  0  0
  3 13  1  0  0  0  0
  4 14  1  0  0  0  0
  6 15  1  0  0  0  0
  6 16  1  0  0  0  0
  7 17  1  0  0  0  0
  7 18  1  0  0  0  0
  8 19  1  0  0  0  0
 10 20  1  0  0  0  0
M  END
> <FRED Chemgauss4 score>
-5.154793

$$$$
MOL0010_1
  -OEChem-06022418023D

 16 17  0     0  0  0  0  0  0999 V2000
   -3.4396   15.3432    1.0505 C   0  0  0  0  0  0  0  0  0  0  0  0
   -3.7587   15.1716   -0.2706 C   0  0  0  0  0  0  0  0  0  0  0  0
   -2.7336   14.8679   -1.1519 C   0  0  0  0  0  0  0  0  0  0  0  0
   -1.2504   14.9111    0.5552 C   0  0  0  0  0  0  0  0  0  0  0  0
   -5.0543   15.2962   -0.9881 C   0  0  0  0  0  0  0  0  0  0  0  0
   -4.6813   14.7571   -2.3861 C   0  0  0  0  0  0  0  0  0  0  0  0
   -2.1744   15.2126    1.4985 N   0  0  0  0  0  0  0  0  0  0  0  0
   -1.4541   14.7298   -0.7679 N   0  0  0  0  0  0  0  0  0  0  0  0
   -3.2299   14.7407   -2.4577 N   0  0  0  0  0  0  0  0  0  0  0  0
    0.5472   14.7219    1.1659 Br  0  0  0  0  0  0  0  0  0  0  0  0
   -4.1834   15.5941    1.7968 H   0  0  0  0  0  0  0  0  0  0  0  0
   -5.8404   14.6927   -0.5255 H   0  0  0  0  0  0  0  0  0  0  0  0
   -5.3619   16.3454   -1.0408 H   0  0  0  0  0  0  0  0  0  0  0  0
   -5.0626   13.7364   -2.5104 H   0  0  0  0  0  0  0  0  0  0  0  0
   -5.1129   15.3754   -3.1798 H   0  0  0  0  0  0  0  0  0  0  0  0
   -2.6767   14.4594   -3.2521 H   0  0  0  0  0  0  0  0  0  0  0  0
  1  2  1  0  0  0  0
  1  7  2  0  0  0  0
  2  3  2  0  0  0  0
  2  5  1  0  0  0  0
  3  8  1  0  0  0  0
  3  9  1  0  0  0  0
  4  7  1  0  0  0  0
  4  8  2  0  0  0  0
  4 10  1  0  0  0  0
  5  6  1  0  0  0  0
  6  9  1  0  0  0  0
  1 11  1  0  0  0  0
  5 12  1  0  0  0  0
  5 13  1  0  0  0  0
  6 14  1  0  0  0  0
  6 15  1  0  0  0  0
  9 16  1  0  0  0  0
M  END
> <FRED Chemgauss4 score>
-5.134205

$$$$
MOL0155_1
  -OEChem-06022418023D

 21 22  0     0  0  0  0  0  0999 V2000
   -3.4838   15.5797    1.1243 C   0  0  0  0  0  0  0  0  0  0  0  0
   -3.8545   15.3398   -0.1724 C   0  0  0  0  0  0  0  0  0  0  0  0
   -2.8868   14.8765   -1.0491 C   0  0  0  0  0  0  0  0  0  0  0  0
   -1.3580   14.9095    0.6175 C   0  0  0  0  0  0  0  0  0  0  0  0
    0.0024   14.6763    1.0624 C   0  0  0  0  0  0  0  0  0  0  0  0
   -5.1532   15.5302   -0.8697 C   0  0  0  0  0  0  0  0  0  0  0  0
   -4.8707   14.8551   -2.2293 C   0  0  0  0  0  0  0  0  0  0  0  0
    0.9904   14.1696    0.0493 C   0  0  0  0  0  0  0  0  0  0  0  0
   -2.2235   15.3659    1.5541 N   0  0  0  0  0  0  0  0  0  0  0  0
   -1.6149   14.6490   -0.6829 N   0  0  0  0  0  0  0  0  0  0  0  0
   -3.4295   14.6982   -2.3303 N   0  0  0  0  0  0  0  0  0  0  0  0
    0.4147   14.8569    2.2126 O   0  0  0  0  0  0  0  0  0  0  0  0
   -4.1796   15.9547    1.8648 H   0  0  0  0  0  0  0  0  0  0  0  0
   -5.9774   15.0394   -0.3444 H   0  0  0  0  0  0  0  0  0  0  0  0
   -5.3646   16.5968   -0.9974 H   0  0  0  0  0  0  0  0  0  0  0  0
   -5.3459   13.8674   -2.2649 H   0  0  0  0  0  0  0  0  0  0  0  0
   -5.2670   15.4492   -3.0591 H   0  0  0  0  0  0  0  0  0  0  0  0
    1.5240   14.9679   -0.4902 H   0  0  0  0  0  0  0  0  0  0  0  0
    0.5358   13.5083   -0.7046 H   0  0  0  0  0  0  0  0  0  0  0  0
    1.8016   13.5652    0.4929 H   0  0  0  0  0  0  0  0  0  0  0  0
   -2.9271   14.3064   -3.1116 H   0  0  0  0  0  0  0  0  0  0  0  0
  1  2  1  0  0  0  0
  1  9  2  0  0  0  0
  2  3  2  0  0  0  0
  2  6  1  0  0  0  0
  3 10  1  0  0  0  0
  3 11  1  0  0  0  0
  4  5  1  0  0  0  0
  4  9  1  0  0  0  0
  4 10  2  0  0  0  0
  5  8  1  0  0  0  0
  5 12  2  0  0  0  0
  6  7  1  0  0  0  0
  7 11  1  0  0  0  0
  1 13  1  0  0  0  0
  6 14  1  0  0  0  0
  6 15  1  0  0  0  0
  7 16  1  0  0  0  0
  7 17  1  0  0  0  0
  8 18  1  0  0  0  0
  8 19  1  0  0  0  0
  8 20  1  0  0  0  0
 11 21  1  0  0  0  0
M  END
> <FRED Chemgauss4 score>
-5.058078

$$$$
MOL0091_1
  -OEChem-06022418023D

 28 29  0     0  0  0  0  0  0999 V2000
   -2.1557   14.7121   -0.9787 C   0  0  0  0  0  0  0  0  0  0  0  0
   -3.4597   14.5115   -1.3470 C   0  0  0  0  0  0  0  0  0  0  0  0
   -3.7056   13.7332   -2.4666 C   0  0  0  0  0  0  0  0  0  0  0  0
   -1.4823   13.4215   -2.7409 C   0  0  0  0  0  0  0  0  0  0  0  0
   -4.7290   15.0290   -0.7726 C   0  0  0  0  0  0  0  0  0  0  0  0
   -5.7757   14.2187   -1.5676 C   0  0  0  0  0  0  0  0  0  0  0  0
    0.4881   11.8565   -2.6212 C   0  0  0  0  0  0  0  0  0  0  0  0
    0.5977   13.9072   -4.0768 C   0  0  0  0  0  0  0  0  0  0  0  0
   -0.7879   11.9567   -4.7528 C   0  0  0  0  0  0  0  0  0  0  0  0
   -0.3614   12.8127   -3.5145 C   0  0  0  0  0  0  0  0  0  0  0  0
   -1.1314   14.1670   -1.6659 N   0  0  0  0  0  0  0  0  0  0  0  0
   -2.7291   13.1678   -3.1947 N   0  0  0  0  0  0  0  0  0  0  0  0
   -5.0843   13.6425   -2.7086 N   0  0  0  0  0  0  0  0  0  0  0  0
   -1.8834   15.3182   -0.1234 H   0  0  0  0  0  0  0  0  0  0  0  0
   -4.8054   14.8329    0.3005 H   0  0  0  0  0  0  0  0  0  0  0  0
   -4.8288   16.1005   -0.9713 H   0  0  0  0  0  0  0  0  0  0  0  0
   -6.1800   13.4126   -0.9438 H   0  0  0  0  0  0  0  0  0  0  0  0
   -6.6115   14.8501   -1.8850 H   0  0  0  0  0  0  0  0  0  0  0  0
    1.3198   11.3951   -3.1664 H   0  0  0  0  0  0  0  0  0  0  0  0
    0.9211   12.3858   -1.7653 H   0  0  0  0  0  0  0  0  0  0  0  0
   -0.1399   11.0495   -2.2254 H   0  0  0  0  0  0  0  0  0  0  0  0
    1.4225   13.4643   -4.6457 H   0  0  0  0  0  0  0  0  0  0  0  0
    0.0899   14.6123   -4.7454 H   0  0  0  0  0  0  0  0  0  0  0  0
    1.0376   14.4846   -3.2550 H   0  0  0  0  0  0  0  0  0  0  0  0
    0.0698   11.5312   -5.2878 H   0  0  0  0  0  0  0  0  0  0  0  0
   -1.4242   11.1180   -4.4469 H   0  0  0  0  0  0  0  0  0  0  0  0
   -1.3471   12.5648   -5.4734 H   0  0  0  0  0  0  0  0  0  0  0  0
   -5.4996   13.0756   -3.4314 H   0  0  0  0  0  0  0  0  0  0  0  0
  1  2  1  0  0  0  0
  1 11  2  0  0  0  0
  2  3  2  0  0  0  0
  2  5  1  0  0  0  0
  3 12  1  0  0  0  0
  3 13  1  0  0  0  0
  4 10  1  0  0  0  0
  4 11  1  0  0  0  0
  4 12  2  0  0  0  0
  5  6  1  0  0  0  0
  6 13  1  0  0  0  0
  7 10  1  0  0  0  0
  8 10  1  0  0  0  0
  9 10  1  0  0  0  0
  1 14  1  0  0  0  0
  5 15  1  0  0  0  0
  5 16  1  0  0  0  0
  6 17  1  0  0  0  0
  6 18  1  0  0  0  0
  7 19  1  0  0  0  0
  7 20  1  0  0  0  0
  7 21  1  0  0  0  0
  8 22  1  0  0  0  0
  8 23  1  0  0  0  0
  8 24  1  0  0  0  0
  9 25  1  0  0  0  0
  9 26  1  0  0  0  0
  9 27  1  0  0  0  0
 13 28  1  0  0  0  0
M  END
> <FRED Chemgauss4 score>
-4.978202

$$$$
MOL0031_1
  -OEChem-06022418023D

 19 20  0     0  0  0  0  0  0999 V2000
   -1.5725   13.6072   -1.8800 C   0  0  0  0  0  0  0  0  0  0  0  0
   -2.0154   14.5624   -2.7655 C   0  0  0  0  0  0  0  0  0  0  0  0
    0.6014   14.1656   -2.3554 C   0  0  0  0  0  0  0  0  0  0  0  0
    0.1549   15.1393   -3.2407 C   0  0  0  0  0  0  0  0  0  0  0  0
    2.0707   13.9890   -2.0929 C   0  0  0  0  0  0  0  0  0  0  0  0
    1.1304   15.9567   -4.0427 C   0  0  0  0  0  0  0  0  0  0  0  0
    2.9396   14.6204   -3.1826 C   0  0  0  0  0  0  0  0  0  0  0  0
   -0.2615   13.3945   -1.6572 N   0  0  0  0  0  0  0  0  0  0  0  0
   -1.1635   15.3393   -3.4619 N   0  0  0  0  0  0  0  0  0  0  0  0
    2.4816   15.9807   -3.4712 N   0  0  0  0  0  0  0  0  0  0  0  0
   -2.2584   12.9813   -1.3224 H   0  0  0  0  0  0  0  0  0  0  0  0
   -3.0698   14.7344   -2.9421 H   0  0  0  0  0  0  0  0  0  0  0  0
    2.3265   14.4286   -1.1222 H   0  0  0  0  0  0  0  0  0  0  0  0
    2.2760   12.9128   -2.0345 H   0  0  0  0  0  0  0  0  0  0  0  0
    1.1901   15.5558   -5.0608 H   0  0  0  0  0  0  0  0  0  0  0  0
    0.7499   16.9819   -4.1217 H   0  0  0  0  0  0  0  0  0  0  0  0
    3.9942   14.6359   -2.8791 H   0  0  0  0  0  0  0  0  0  0  0  0
    2.8831   14.0155   -4.0940 H   0  0  0  0  0  0  0  0  0  0  0  0
    3.1206   16.4165   -4.1367 H   0  0  0  0  0  0  0  0  0  0  0  0
  1  2  1  0  0  0  0
  1  8  2  0  0  0  0
  2  9  2  0  0  0  0
  3  4  2  0  0  0  0
  3  5  1  0  0  0  0
  3  8  1  0  0  0  0
  4  6  1  0  0  0  0
  4  9  1  0  0  0  0
  5  7  1  0  0  0  0
  6 10  1  0  0  0  0
  7 10  1  0  0  0  0
  1 11  1  0  0  0  0
  2 12  1  0  0  0  0
  5 13  1  0  0  0  0
  5 14  1  0  0  0  0
  6 15  1  0  0  0  0
  6 16  1  0  0  0  0
  7 17  1  0  0  0  0
  7 18  1  0  0  0  0
 10 19  1  0  0  0  0
M  END
> <FRED Chemgauss4 score>
-4.917133

$$$$
MOL0174_1
  -OEChem-06022418023D

 21 22  0     1  0  0  0  0  0999 V2000
    1.4718   12.0093   -2.0872 C   0  0  0  0  0  0  0  0  0  0  0  0
   -0.5020   12.5113   -2.7371 C   0  0  0  0  0  0  0  0  0  0  0  0
    1.5837   13.2489   -2.6754 C   0  0  0  0  0  0  0  0  0  0  0  0
    2.7136   14.1778   -2.9313 C   0  0  0  0  0  0  0  0  0  0  0  0
   -0.0504   14.7920   -3.7251 C   0  0  0  0  0  0  0  0  0  0  0  0
    1.1893   15.5406   -4.2474 C   0  0  1  0  0  0  0  0  0  0  0  0
    0.8304   16.9772   -4.6175 C   0  0  0  0  0  0  0  0  0  0  0  0
    0.1724   11.5581   -2.1288 N   0  0  0  0  0  0  0  0  0  0  0  0
    0.3118   13.5434   -3.0856 N   0  0  0  0  0  0  0  0  0  0  0  0
    2.2491   15.5426   -3.2233 N   0  0  0  0  0  0  0  0  0  0  0  0
    2.2565   11.4158   -1.6407 H   0  0  0  0  0  0  0  0  0  0  0  0
   -1.5636   12.5034   -2.9416 H   0  0  0  0  0  0  0  0  0  0  0  0
    3.3784   14.2106   -2.0612 H   0  0  0  0  0  0  0  0  0  0  0  0
    3.3089   13.8084   -3.7747 H   0  0  0  0  0  0  0  0  0  0  0  0
   -0.5873   15.3799   -2.9709 H   0  0  0  0  0  0  0  0  0  0  0  0
   -0.7366   14.5595   -4.5470 H   0  0  0  0  0  0  0  0  0  0  0  0
    1.5680   15.0410   -5.1493 H   0  0  0  0  0  0  0  0  0  0  0  0
    0.4505   17.5013   -3.7416 H   0  0  0  0  0  0  0  0  0  0  0  0
    0.0657   16.9796   -5.3930 H   0  0  0  0  0  0  0  0  0  0  0  0
    1.7139   17.4960   -4.9872 H   0  0  0  0  0  0  0  0  0  0  0  0
    1.8877   15.9649   -2.3674 H   0  0  0  0  0  0  0  0  0  0  0  0
  1  3  2  0  0  0  0
  1  8  1  0  0  0  0
  2  8  2  0  0  0  0
  2  9  1  0  0  0  0
  3  4  1  0  0  0  0
  3  9  1  0  0  0  0
  4 10  1  0  0  0  0
  5  6  1  0  0  0  0
  5  9  1  0  0  0  0
  6  7  1  0  0  0  0
  6 10  1  0  0  0  0
  1 11  1  0  0  0  0
  2 12  1  0  0  0  0
  4 13  1  0  0  0  0
  4 14  1  0  0  0  0
  5 15  1  0  0  0  0
  5 16  1  0  0  0  0
  6 17  1  0  0  0  0
  7 18  1  0  0  0  0
  7 19  1  0  0  0  0
  7 20  1  0  0  0  0
 10 21  1  0  0  0  0
M  END
> <FRED Chemgauss4 score>
-4.900538

$$$$
MOL0133_1
  -OEChem-06022418023D

 21 22  0     0  0  0  0  0  0999 V2000
   -4.0869   14.1823   -3.5013 C   0  0  0  0  0  0  0  0  0  0  0  0
   -2.8467   14.7275   -3.1757 C   0  0  0  0  0  0  0  0  0  0  0  0
   -5.0533   14.0045   -2.5117 C   0  0  0  0  0  0  0  0  0  0  0  0
   -2.5714   15.1005   -1.8602 C   0  0  0  0  0  0  0  0  0  0  0  0
   -4.7825   14.3666   -1.1858 C   0  0  0  0  0  0  0  0  0  0  0  0
   -3.5388   14.9362   -0.8600 C   0  0  0  0  0  0  0  0  0  0  0  0
   -5.8429   14.2040   -0.1266 C   0  0  0  0  0  0  0  0  0  0  0  0
   -3.2173   15.3076    0.5670 C   0  0  0  0  0  0  0  0  0  0  0  0
   -5.2751   14.2897    1.2913 C   0  0  0  0  0  0  0  0  0  0  0  0
   -4.4040   15.4575    1.4172 N   0  0  0  0  0  0  0  0  0  0  0  0
   -4.3007   13.8955   -4.5270 H   0  0  0  0  0  0  0  0  0  0  0  0
   -2.0939   14.8609   -3.9469 H   0  0  0  0  0  0  0  0  0  0  0  0
   -6.0186   13.5825   -2.7793 H   0  0  0  0  0  0  0  0  0  0  0  0
   -1.5981   15.5197   -1.6180 H   0  0  0  0  0  0  0  0  0  0  0  0
   -6.6111   14.9769   -0.2472 H   0  0  0  0  0  0  0  0  0  0  0  0
   -6.3238   13.2283   -0.2718 H   0  0  0  0  0  0  0  0  0  0  0  0
   -2.5787   14.5361    1.0129 H   0  0  0  0  0  0  0  0  0  0  0  0
   -2.6468   16.2445    0.5700 H   0  0  0  0  0  0  0  0  0  0  0  0
   -6.0829   14.3409    2.0322 H   0  0  0  0  0  0  0  0  0  0  0  0
   -4.7029   13.3823    1.5127 H   0  0  0  0  0  0  0  0  0  0  0  0
   -4.1113   15.5571    2.3895 H   0  0  0  0  0  0  0  0  0  0  0  0
  1  2  1  0  0  0  0
  1  3  2  0  0  0  0
  2  4  2  0  0  0  0
  3  5  1  0  0  0  0
  4  6  1  0  0  0  0
  5  6  2  0  0  0  0
  5  7  1  0  0  0  0
  6  8  1  0  0  0  0
  7  9  1  0  0  0  0
  8 10  1  0  0  0  0
  9 10  1  0  0  0  0
  1 11  1  0  0  0  0
  2 12  1  0  0  0  0
  3 13  1  0  0  0  0
  4 14  1  0  0  0  0
  7 15  1  0  0  0  0
  7 16  1  0  0  0  0
  8 17  1  0  0  0  0
  8 18  1  0  0  0  0
  9 19  1  0  0  0  0
  9 20  1  0  0  0  0
 10 21  1  0  0  0  0
M  END
> <FRED Chemgauss4 score>
-4.823485

$$$$
MOL0096_1
  -OEChem-06022418023D

 18 19  0     0  0  0  0  0  0999 V2000
   -3.4881   14.6912   -0.9938 C   0  0  0  0  0  0  0  0  0  0  0  0
   -2.4534   14.4651   -1.5596 C   0  0  0  0  0  0  0  0  0  0  0  0
   -0.1577   13.5241   -4.1347 C   0  0  0  0  0  0  0  0  0  0  0  0
   -1.2278   14.1973   -2.2304 C   0  0  0  0  0  0  0  0  0  0  0  0
    1.0455   13.6866   -3.5004 C   0  0  0  0  0  0  0  0  0  0  0  0
    1.0326   14.1300   -2.1877 C   0  0  0  0  0  0  0  0  0  0  0  0
    2.4390   13.5104   -3.9861 C   0  0  0  0  0  0  0  0  0  0  0  0
    3.2401   13.6621   -2.6748 C   0  0  0  0  0  0  0  0  0  0  0  0
   -1.3282   13.7720   -3.5124 N   0  0  0  0  0  0  0  0  0  0  0  0
   -0.0990   14.3984   -1.5161 N   0  0  0  0  0  0  0  0  0  0  0  0
    2.3413   14.2541   -1.6983 N   0  0  0  0  0  0  0  0  0  0  0  0
   -4.4057   14.8922   -0.4922 H   0  0  0  0  0  0  0  0  0  0  0  0
   -0.2285   13.1934   -5.1637 H   0  0  0  0  0  0  0  0  0  0  0  0
    2.5964   12.5265   -4.4369 H   0  0  0  0  0  0  0  0  0  0  0  0
    2.6976   14.3009   -4.6977 H   0  0  0  0  0  0  0  0  0  0  0  0
    3.5666   12.6781   -2.3176 H   0  0  0  0  0  0  0  0  0  0  0  0
    4.1324   14.2793   -2.8217 H   0  0  0  0  0  0  0  0  0  0  0  0
    2.5729   14.4988   -0.7483 H   0  0  0  0  0  0  0  0  0  0  0  0
  1  2  3  0  0  0  0
  2  4  1  0  0  0  0
  3  5  1  0  0  0  0
  3  9  2  0  0  0  0
  4  9  1  0  0  0  0
  4 10  2  0  0  0  0
  5  6  2  0  0  0  0
  5  7  1  0  0  0  0
  6 10  1  0  0  0  0
  6 11  1  0  0  0  0
  7  8  1  0  0  0  0
  8 11  1  0  0  0  0
  1 12  1  0  0  0  0
  3 13  1  0  0  0  0
  7 14  1  0  0  0  0
  7 15  1  0  0  0  0
  8 16  1  0  0  0  0
  8 17  1  0  0  0  0
 11 18  1  0  0  0  0
M  END
> <FRED Chemgauss4 score>
-4.771130

$$$$
MOL0075_1
  -OEChem-06022418023D

 21 22  0     0  0  0  0  0  0999 V2000
   -0.1313   11.6090   -2.8497 C   0  0  0  0  0  0  0  0  0  0  0  0
    0.7248   13.4783   -2.3269 C   0  0  0  0  0  0  0  0  0  0  0  0
    0.5297   13.5216   -3.6863 C   0  0  0  0  0  0  0  0  0  0  0  0
    1.2871   14.6099   -1.5547 C   0  0  0  0  0  0  0  0  0  0  0  0
    0.8858   14.6568   -4.5618 C   0  0  0  0  0  0  0  0  0  0  0  0
    1.1825   15.8809   -3.6616 C   0  0  0  0  0  0  0  0  0  0  0  0
   -0.4038   11.8687   -5.3320 C   0  0  0  0  0  0  0  0  0  0  0  0
    0.3056   12.2859   -1.8053 N   0  0  0  0  0  0  0  0  0  0  0  0
   -0.0142   12.3197   -4.0187 N   0  0  0  0  0  0  0  0  0  0  0  0
    1.9916   15.5381   -2.4696 N   0  0  0  0  0  0  0  0  0  0  0  0
   -0.5406   10.6082   -2.8242 H   0  0  0  0  0  0  0  0  0  0  0  0
    0.4918   15.1549   -1.0331 H   0  0  0  0  0  0  0  0  0  0  0  0
    1.9870   14.2392   -0.7956 H   0  0  0  0  0  0  0  0  0  0  0  0
    1.7596   14.4282   -5.1792 H   0  0  0  0  0  0  0  0  0  0  0  0
    0.0443   14.8822   -5.2264 H   0  0  0  0  0  0  0  0  0  0  0  0
    1.7071   16.6562   -4.2379 H   0  0  0  0  0  0  0  0  0  0  0  0
    0.2348   16.3275   -3.3349 H   0  0  0  0  0  0  0  0  0  0  0  0
   -1.4452   12.1596   -5.4933 H   0  0  0  0  0  0  0  0  0  0  0  0
    0.2430   12.3311   -6.0826 H   0  0  0  0  0  0  0  0  0  0  0  0
   -0.2964   10.7818   -5.3874 H   0  0  0  0  0  0  0  0  0  0  0  0
    2.2099   16.3963   -1.9661 H   0  0  0  0  0  0  0  0  0  0  0  0
  1  8  2  0  0  0  0
  1  9  1  0  0  0  0
  2  3  2  0  0  0  0
  2  4  1  0  0  0  0
  2  8  1  0  0  0  0
  3  5  1  0  0  0  0
  3  9  1  0  0  0  0
  4 10  1  0  0  0  0
  5  6  1  0  0  0  0
  6 10  1  0  0  0  0
  7  9  1  0  0  0  0
  1 11  1  0  0  0  0
  4 12  1  0  0  0  0
  4 13  1  0  0  0  0
  5 14  1  0  0  0  0
  5 15  1  0  0  0  0
  6 16  1  0  0  0  0
  6 17  1  0  0  0  0
  7 18  1  0  0  0  0
  7 19  1  0  0  0  0
  7 20  1  0  0  0  0
 10 21  1  0  0  0  0
M  END
> <FRED Chemgauss4 score>
-4.741882

$$$$
MOL0064_1
  -OEChem-06022418023D

 16 17  0     0  0  0  0  0  0999 V2000
   -1.8125   14.8092   -1.1073 C   0  0  0  0  0  0  0  0  0  0  0  0
   -2.8792   14.9035   -0.2530 C   0  0  0  0  0  0  0  0  0  0  0  0
   -2.6177   14.9856    1.1052 C   0  0  0  0  0  0  0  0  0  0  0  0
   -0.3971   14.8948    0.6854 C   0  0  0  0  0  0  0  0  0  0  0  0
   -4.3428   14.8919   -0.5107 C   0  0  0  0  0  0  0  0  0  0  0  0
   -4.9006   15.2483    0.8843 C   0  0  0  0  0  0  0  0  0  0  0  0
   -0.5408   14.8068   -0.6585 N   0  0  0  0  0  0  0  0  0  0  0  0
   -1.3747   14.9830    1.6135 N   0  0  0  0  0  0  0  0  0  0  0  0
   -3.8150   15.0616    1.8322 N   0  0  0  0  0  0  0  0  0  0  0  0
    1.5786   14.8911    1.4111 I   0  0  0  0  0  0  0  0  0  0  0  0
   -1.9371   14.7294   -2.1804 H   0  0  0  0  0  0  0  0  0  0  0  0
   -4.6343   15.6355   -1.2574 H   0  0  0  0  0  0  0  0  0  0  0  0
   -4.6679   13.8940   -0.8213 H   0  0  0  0  0  0  0  0  0  0  0  0
   -5.2228   16.2964    0.9037 H   0  0  0  0  0  0  0  0  0  0  0  0
   -5.7645   14.6261    1.1389 H   0  0  0  0  0  0  0  0  0  0  0  0
   -3.8675   15.1924    2.8304 H   0  0  0  0  0  0  0  0  0  0  0  0
  1  2  1  0  0  0  0
  1  7  2  0  0  0  0
  2  3  2  0  0  0  0
  2  5  1  0  0  0  0
  3  8  1  0  0  0  0
  3  9  1  0  0  0  0
  4  7  1  0  0  0  0
  4  8  2  0  0  0  0
  4 10  1  0  0  0  0
  5  6  1  0  0  0  0
  6  9  1  0  0  0  0
  1 11  1  0  0  0  0
  5 12  1  0  0  0  0
  5 13  1  0  0  0  0
  6 14  1  0  0  0  0
  6 15  1  0  0  0  0
  9 16  1  0  0  0  0
M  END
> <FRED Chemgauss4 score>
-4.650753

$$$$
MOL0039_1
  -OEChem-06022418023D

 17 18  0     0  0  0  0  0  0999 V2000
   -0.0587   14.6128    0.9694 C   0  0  0  0  0  0  0  0  0  0  0  0
   -3.6193   14.9416    0.9827 C   0  0  0  0  0  0  0  0  0  0  0  0
   -1.4021   14.6603    0.5038 C   0  0  0  0  0  0  0  0  0  0  0  0
   -3.9162   14.7484   -0.3406 C   0  0  0  0  0  0  0  0  0  0  0  0
   -2.8662   14.5154   -1.2141 C   0  0  0  0  0  0  0  0  0  0  0  0
   -5.2119   14.7838   -1.0677 C   0  0  0  0  0  0  0  0  0  0  0  0
   -4.7926   14.2713   -2.4626 C   0  0  0  0  0  0  0  0  0  0  0  0
    1.0372   14.5740    1.3493 N   0  0  0  0  0  0  0  0  0  0  0  0
   -2.3515   14.8980    1.4401 N   0  0  0  0  0  0  0  0  0  0  0  0
   -1.5831   14.4653   -0.8206 N   0  0  0  0  0  0  0  0  0  0  0  0
   -3.3430   14.3543   -2.5234 N   0  0  0  0  0  0  0  0  0  0  0  0
   -4.3841   15.1415    1.7232 H   0  0  0  0  0  0  0  0  0  0  0  0
   -5.9583   14.1279   -0.6107 H   0  0  0  0  0  0  0  0  0  0  0  0
   -5.5899   15.8095   -1.1237 H   0  0  0  0  0  0  0  0  0  0  0  0
   -5.1017   13.2267   -2.5881 H   0  0  0  0  0  0  0  0  0  0  0  0
   -5.2597   14.8581   -3.2601 H   0  0  0  0  0  0  0  0  0  0  0  0
   -2.7659   14.1116   -3.3135 H   0  0  0  0  0  0  0  0  0  0  0  0
  1  3  1  0  0  0  0
  1  8  3  0  0  0  0
  2  4  1  0  0  0  0
  2  9  2  0  0  0  0
  3  9  1  0  0  0  0
  3 10  2  0  0  0  0
  4  5  2  0  0  0  0
  4  6  1  0  0  0  0
  5 10  1  0  0  0  0
  5 11  1  0  0  0  0
  6  7  1  0  0  0  0
  7 11  1  0  0  0  0
  2 12  1  0  0  0  0
  6 13  1  0  0  0  0
  6 14  1  0  0  0  0
  7 15  1  0  0  0  0
  7 16  1  0  0  0  0
 11 17  1  0  0  0  0
M  END
> <FRED Chemgauss4 score>
-4.558986

$$$$
MOL0053_2
  -OEChem-06022418023D

 22 23  0     0  0  0  0  0  0999 V2000
   -1.5108   14.5715   -0.6339 C   0  0  0  0  0  0  0  0  0  0  0  0
   -2.8631   14.7114   -0.8014 C   0  0  0  0  0  0  0  0  0  0  0  0
   -3.3621   14.6958   -2.0939 C   0  0  0  0  0  0  0  0  0  0  0  0
   -1.2690   14.4066   -2.9008 C   0  0  0  0  0  0  0  0  0  0  0  0
   -3.9534   14.9307    0.1845 C   0  0  0  0  0  0  0  0  0  0  0  0
   -5.2052   14.7754   -0.7062 C   0  0  0  0  0  0  0  0  0  0  0  0
    0.3981   15.5114   -4.4130 C   0  0  0  0  0  0  0  0  0  0  0  0
   -0.3620   14.2324   -4.0723 C   0  0  0  0  0  0  0  0  0  0  0  0
   -0.6778   14.4108   -1.6822 N   0  0  0  0  0  0  0  0  0  0  0  0
   -2.5839   14.5445   -3.1780 N   0  0  0  0  0  0  0  0  0  0  0  0
   -4.7547   14.8641   -2.0849 N   0  0  0  0  0  0  0  0  0  0  0  0
   -1.0450   14.5862    0.3438 H   0  0  0  0  0  0  0  0  0  0  0  0
   -3.9401   14.1860    0.9853 H   0  0  0  0  0  0  0  0  0  0  0  0
   -3.8923   15.9400    0.6028 H   0  0  0  0  0  0  0  0  0  0  0  0
   -5.6669   13.7951   -0.5381 H   0  0  0  0  0  0  0  0  0  0  0  0
   -5.9525   15.5426   -0.4807 H   0  0  0  0  0  0  0  0  0  0  0  0
   -0.2927   16.3383   -4.6101 H   0  0  0  0  0  0  0  0  0  0  0  0
    1.0180   15.3680   -5.3036 H   0  0  0  0  0  0  0  0  0  0  0  0
    1.0535   15.8106   -3.5881 H   0  0  0  0  0  0  0  0  0  0  0  0
    0.3615   13.4239   -3.8805 H   0  0  0  0  0  0  0  0  0  0  0  0
   -0.9345   13.9074   -4.9558 H   0  0  0  0  0  0  0  0  0  0  0  0
   -5.3388   14.8212   -2.9054 H   0  0  0  0  0  0  0  0  0  0  0  0
  1  2  1  0  0  0  0
  1  9  2  0  0  0  0
  2  3  2  0  0  0  0
  2  5  1  0  0  0  0
  3 10  1  0  0  0  0
  3 11  1  0  0  0  0
  4  8  1  0  0  0  0
  4  9  1  0  0  0  0
  4 10  2  0  0  0  0
  5  6  1  0  0  0  0
  6 11  1  0  0  0  0
  7  8  1  0  0  0  0
  1 12  1  0  0  0  0
  5 13  1  0  0  0  0
  5 14  1  0  0  0  0
  6 15  1  0  0  0  0
  6 16  1  0  0  0  0
  7 17  1  0  0  0  0
  7 18  1  0  0  0  0
  7 19  1  0  0  0  0
  8 20  1  0  0  0  0
  8 21  1  0  0  0  0
 11 22  1  0  0  0  0
M  END
> <FRED Chemgauss4 score>
-4.471258

$$$$
MOL0043_1
  -OEChem-06022418023D

 19 20  0     0  0  0  0  0  0999 V2000
    0.1431   14.1107   -4.1717 C   0  0  0  0  0  0  0  0  0  0  0  0
    1.1949   14.1287   -3.2944 C   0  0  0  0  0  0  0  0  0  0  0  0
    0.9122   14.2649   -1.9448 C   0  0  0  0  0  0  0  0  0  0  0  0
   -1.2995   14.3351   -2.4130 C   0  0  0  0  0  0  0  0  0  0  0  0
    2.6620   14.0697   -3.5247 C   0  0  0  0  0  0  0  0  0  0  0  0
    3.1912   13.9237   -2.0815 C   0  0  0  0  0  0  0  0  0  0  0  0
   -2.7066   14.4480   -1.9306 C   0  0  0  0  0  0  0  0  0  0  0  0
   -1.1345   14.2094   -3.7515 N   0  0  0  0  0  0  0  0  0  0  0  0
   -0.3376   14.3725   -1.4653 N   0  0  0  0  0  0  0  0  0  0  0  0
    2.0968   14.2785   -1.1937 N   0  0  0  0  0  0  0  0  0  0  0  0
   -3.6336   14.4066   -2.9328 F   0  0  0  0  0  0  0  0  0  0  0  0
   -3.0699   13.4534   -1.0680 F   0  0  0  0  0  0  0  0  0  0  0  0
   -2.9405   15.6153   -1.2634 F   0  0  0  0  0  0  0  0  0  0  0  0
    0.2845   14.0201   -5.2417 H   0  0  0  0  0  0  0  0  0  0  0  0
    2.9476   13.2132   -4.1417 H   0  0  0  0  0  0  0  0  0  0  0  0
    3.0145   15.0004   -3.9797 H   0  0  0  0  0  0  0  0  0  0  0  0
    3.4886   12.8852   -1.8933 H   0  0  0  0  0  0  0  0  0  0  0  0
    4.0652   14.5603   -1.9111 H   0  0  0  0  0  0  0  0  0  0  0  0
    2.1322   14.3036   -0.1865 H   0  0  0  0  0  0  0  0  0  0  0  0
  1  2  1  0  0  0  0
  1  8  2  0  0  0  0
  2  3  2  0  0  0  0
  2  5  1  0  0  0  0
  3  9  1  0  0  0  0
  3 10  1  0  0  0  0
  4  7  1  0  0  0  0
  4  8  1  0  0  0  0
  4  9  2  0  0  0  0
  5  6  1  0  0  0  0
  6 10  1  0  0  0  0
  7 11  1  0  0  0  0
  7 12  1  0  0  0  0
  7 13  1  0  0  0  0
  1 14  1  0  0  0  0
  5 15  1  0  0  0  0
  5 16  1  0  0  0  0
  6 17  1  0  0  0  0
  6 18  1  0  0  0  0
 10 19  1  0  0  0  0
M  END
> <FRED Chemgauss4 score>
-4.267528

$$$$
