MOL0143_3
  -OEChem-06022418243D

 31 33  0     0  0  0  0  0  0999 V2000
   -0.0833   14.7166    0.7484 C   0  0  0  0  0  0  0  0  0  0  0  0
   -2.4356   15.0424   -0.4357 C   0  0  0  0  0  0  0  0  0  0  0  0
   -2.2673   15.2791    0.9191 C   0  0  0  0  0  0  0  0  0  0  0  0
   -1.3468   14.6243   -1.1541 C   0  0  0  0  0  0  0  0  0  0  0  0
   -3.8485   15.2629   -0.8403 C   0  0  0  0  0  0  0  0  0  0  0  0
   -0.5328   12.4166   -4.3883 C   0  0  0  0  0  0  0  0  0  0  0  0
   -1.6522   12.0898   -3.3970 C   0  0  0  0  0  0  0  0  0  0  0  0
    0.3582   13.5490   -3.8728 C   0  0  0  0  0  0  0  0  0  0  0  0
   -4.4293   15.9232    0.4290 C   0  0  0  0  0  0  0  0  0  0  0  0
   -2.4278   13.3503   -3.0150 C   0  0  0  0  0  0  0  0  0  0  0  0
   -0.4674   14.7758   -3.4731 C   0  0  0  0  0  0  0  0  0  0  0  0
   -1.0919   15.1234    1.5497 N   0  0  0  0  0  0  0  0  0  0  0  0
   -0.1387   14.4546   -0.5793 N   0  0  0  0  0  0  0  0  0  0  0  0
   -3.4777   15.6843    1.5010 N   0  0  0  0  0  0  0  0  0  0  0  0
   -1.4976   14.3651   -2.5122 N   0  0  0  0  0  0  0  0  0  0  0  0
    0.8826   14.5837    1.2215 H   0  0  0  0  0  0  0  0  0  0  0  0
   -3.9333   15.9276   -1.7049 H   0  0  0  0  0  0  0  0  0  0  0  0
   -4.3408   14.3068   -1.0455 H   0  0  0  0  0  0  0  0  0  0  0  0
    0.0771   11.5176   -4.5658 H   0  0  0  0  0  0  0  0  0  0  0  0
   -0.9673   12.6987   -5.3582 H   0  0  0  0  0  0  0  0  0  0  0  0
   -2.3336   11.3596   -3.8417 H   0  0  0  0  0  0  0  0  0  0  0  0
   -1.2252   11.6345   -2.5010 H   0  0  0  0  0  0  0  0  0  0  0  0
    0.9335   13.1981   -3.0097 H   0  0  0  0  0  0  0  0  0  0  0  0
    1.0813   13.8302   -4.6472 H   0  0  0  0  0  0  0  0  0  0  0  0
   -4.5382   17.0033    0.2750 H   0  0  0  0  0  0  0  0  0  0  0  0
   -5.4160   15.5166    0.6738 H   0  0  0  0  0  0  0  0  0  0  0  0
   -2.9570   13.7191   -3.8974 H   0  0  0  0  0  0  0  0  0  0  0  0
   -3.1689   13.1110   -2.2471 H   0  0  0  0  0  0  0  0  0  0  0  0
    0.1820   15.5303   -3.0274 H   0  0  0  0  0  0  0  0  0  0  0  0
   -0.9251   15.1965   -4.3690 H   0  0  0  0  0  0  0  0  0  0  0  0
   -3.5788   15.9741    2.4611 H   0  0  0  0  0  0  0  0  0  0  0  0
  1 12  1  0  0  0  0
  1 13  2  0  0  0  0
  2  3  1  0  0  0  0
  2  4  2  0  0  0  0
  2  5  1  0  0  0  0
  3 12  2  0  0  0  0
  3 14  1  0  0  0  0
  4 13  1  0  0  0  0
  4 15  1  0  0  0  0
  5  9  1  0  0  0  0
  6  7  1  0  0  0  0
  6  8  1  0  0  0  0
  7 10  1  0  0  0  0
  8 11  1  0  0  0  0
  9 14  1  0  0  0  0
 10 15  1  0  0  0  0
 11 15  1  0  0  0  0
  1 16  1  0  0  0  0
  5 17  1  0  0  0  0
  5 18  1  0  0  0  0
  6 19  1  0  0  0  0
  6 20  1  0  0  0  0
  7 21  1  0  0  0  0
  7 22  1  0  0  0  0
  8 23  1  0  0  0  0
  8 24  1  0  0  0  0
  9 25  1  0  0  0  0
  9 26  1  0  0  0  0
 10 27  1  0  0  0  0
 10 28  1  0  0  0  0
 11 29  1  0  0  0  0
 11 30  1  0  0  0  0
 14 31  1  0  0  0  0
M  END
> <HYBRID receptor title>
5S18(A) > WOY(A-201)

> <HYBRID receptor filename>
5s18.oedu

> <HYBRID Chemgauss4 score>
-8.802896

> <HYBRID receptor title>
5S18(A) > WOY(A-201)

> <HYBRID receptor filename>
5s18.oedu

> <Dock Type>
Hybrid

$$$$
MOL0061_3
  -OEChem-06022418243D

 32 34  0     1  0  0  0  0  0999 V2000
   -2.8142   14.9640    1.1983 C   0  0  0  0  0  0  0  0  0  0  0  0
   -0.5573   14.8749    0.8565 C   0  0  0  0  0  0  0  0  0  0  0  0
   -3.0093   14.8778   -0.1552 C   0  0  0  0  0  0  0  0  0  0  0  0
   -1.8915   14.8023   -0.9748 C   0  0  0  0  0  0  0  0  0  0  0  0
   -4.2575   14.8841   -0.9622 C   0  0  0  0  0  0  0  0  0  0  0  0
    1.2803   13.3125   -4.1884 C   0  0  0  0  0  0  0  0  0  0  0  0
    0.8560   14.7551   -4.4484 C   0  0  0  0  0  0  0  0  0  0  0  0
    0.0773   12.3766   -4.1124 C   0  0  0  0  0  0  0  0  0  0  0  0
   -0.1651   15.2365   -3.4190 C   0  0  0  0  0  0  0  0  0  0  0  0
   -0.9442   12.8549   -3.0821 C   0  0  0  0  0  0  0  0  0  0  0  0
   -3.7131   14.4524   -2.3392 C   0  0  0  0  0  0  0  0  0  0  0  0
   -1.3766   14.2999   -3.3541 C   0  0  0  0  0  0  0  0  0  0  0  0
   -1.5796   14.9611    1.7398 N   0  0  0  0  0  0  0  0  0  0  0  0
   -0.6372   14.7957   -0.4898 N   0  0  0  0  0  0  0  0  0  0  0  0
   -2.2818   14.7417   -2.3257 N   0  0  2  0  0  0  0  0  0  0  0  0
   -3.6382   15.0392    1.8972 H   0  0  0  0  0  0  0  0  0  0  0  0
    0.4406   14.8714    1.2787 H   0  0  0  0  0  0  0  0  0  0  0  0
   -4.9998   14.1746   -0.5861 H   0  0  0  0  0  0  0  0  0  0  0  0
   -4.6800   15.8932   -1.0023 H   0  0  0  0  0  0  0  0  0  0  0  0
    1.9586   12.9790   -4.9820 H   0  0  0  0  0  0  0  0  0  0  0  0
    1.8404   13.2624   -3.2465 H   0  0  0  0  0  0  0  0  0  0  0  0
    1.7359   15.4081   -4.4272 H   0  0  0  0  0  0  0  0  0  0  0  0
    0.4242   14.8332   -5.4539 H   0  0  0  0  0  0  0  0  0  0  0  0
   -0.4003   12.3145   -5.0981 H   0  0  0  0  0  0  0  0  0  0  0  0
    0.4136   11.3655   -3.8568 H   0  0  0  0  0  0  0  0  0  0  0  0
    0.3215   15.2930   -2.4364 H   0  0  0  0  0  0  0  0  0  0  0  0
   -0.4881   16.2521   -3.6777 H   0  0  0  0  0  0  0  0  0  0  0  0
   -1.8163   12.1904   -3.1030 H   0  0  0  0  0  0  0  0  0  0  0  0
   -0.5031   12.7763   -2.0798 H   0  0  0  0  0  0  0  0  0  0  0  0
   -3.8713   13.3747   -2.4811 H   0  0  0  0  0  0  0  0  0  0  0  0
   -4.2246   14.9768   -3.1540 H   0  0  0  0  0  0  0  0  0  0  0  0
   -1.9098   14.3409   -4.3144 H   0  0  0  0  0  0  0  0  0  0  0  0
  1  3  1  0  0  0  0
  1 13  2  0  0  0  0
  2 13  1  0  0  0  0
  2 14  2  0  0  0  0
  3  4  2  0  0  0  0
  3  5  1  0  0  0  0
  4 14  1  0  0  0  0
  4 15  1  0  0  0  0
  5 11  1  0  0  0  0
  6  7  1  0  0  0  0
  6  8  1  0  0  0  0
  7  9  1  0  0  0  0
  8 10  1  0  0  0  0
  9 12  1  0  0  0  0
 10 12  1  0  0  0  0
 11 15  1  0  0  0  0
 12 15  1  0  0  0  0
  1 16  1  0  0  0  0
  2 17  1  0  0  0  0
  5 18  1  0  0  0  0
  5 19  1  0  0  0  0
  6 20  1  0  0  0  0
  6 21  1  0  0  0  0
  7 22  1  0  0  0  0
  7 23  1  0  0  0  0
  8 24  1  0  0  0  0
  8 25  1  0  0  0  0
  9 26  1  0  0  0  0
  9 27  1  0  0  0  0
 10 28  1  0  0  0  0
 10 29  1  0  0  0  0
 11 30  1  0  0  0  0
 11 31  1  0  0  0  0
 12 32  1  0  0  0  0
M  END
> <HYBRID receptor title>
5S18(A) > WOY(A-201)

> <HYBRID receptor filename>
5s18.oedu

> <HYBRID Chemgauss4 score>
-8.740950

> <HYBRID receptor title>
5S18(A) > WOY(A-201)

> <HYBRID receptor filename>
5s18.oedu

> <Dock Type>
Hybrid

$$$$
MOL0145_35
  -OEChem-06022418243D

 37 39  0     0  0  0  0  0  0999 V2000
   -3.1281   14.9141    1.3476 C   0  0  0  0  0  0  0  0  0  0  0  0
   -0.8651   14.7952    1.0458 C   0  0  0  0  0  0  0  0  0  0  0  0
   -3.3022   14.9577   -0.0121 C   0  0  0  0  0  0  0  0  0  0  0  0
   -2.1655   14.9136   -0.7953 C   0  0  0  0  0  0  0  0  0  0  0  0
   -1.6257   14.9426   -3.2014 C   0  0  0  0  0  0  0  0  0  0  0  0
   -4.5520   15.0476   -0.8131 C   0  0  0  0  0  0  0  0  0  0  0  0
    2.9261   12.8475   -3.5740 C   0  0  0  0  0  0  0  0  0  0  0  0
    2.9412   14.2188   -2.9057 C   0  0  0  0  0  0  0  0  0  0  0  0
    1.5055   12.3694   -3.8582 C   0  0  0  0  0  0  0  0  0  0  0  0
    2.1511   15.2482   -3.7120 C   0  0  0  0  0  0  0  0  0  0  0  0
    0.7151   13.3981   -4.6651 C   0  0  0  0  0  0  0  0  0  0  0  0
   -4.0022   15.0520   -2.2466 C   0  0  0  0  0  0  0  0  0  0  0  0
    0.7179   14.7951   -4.0269 C   0  0  0  0  0  0  0  0  0  0  0  0
   -0.1779   14.8515   -2.7864 C   0  0  0  0  0  0  0  0  0  0  0  0
   -1.9050   14.8316    1.9120 N   0  0  0  0  0  0  0  0  0  0  0  0
   -0.9191   14.8320   -0.3023 N   0  0  0  0  0  0  0  0  0  0  0  0
   -2.5308   14.9676   -2.1545 N   0  0  0  0  0  0  0  0  0  0  0  0
   -1.9217   14.9884   -4.3962 O   0  0  0  0  0  0  0  0  0  0  0  0
   -3.9644   14.9426    2.0361 H   0  0  0  0  0  0  0  0  0  0  0  0
    0.1227   14.7281    1.4859 H   0  0  0  0  0  0  0  0  0  0  0  0
   -5.1950   14.1798   -0.6386 H   0  0  0  0  0  0  0  0  0  0  0  0
   -5.0944   15.9720   -0.5944 H   0  0  0  0  0  0  0  0  0  0  0  0
    3.4957   12.8879   -4.5109 H   0  0  0  0  0  0  0  0  0  0  0  0
    3.4322   12.1203   -2.9251 H   0  0  0  0  0  0  0  0  0  0  0  0
    2.5220   14.1408   -1.8961 H   0  0  0  0  0  0  0  0  0  0  0  0
    3.9779   14.5602   -2.7954 H   0  0  0  0  0  0  0  0  0  0  0  0
    1.5422   11.4228   -4.4113 H   0  0  0  0  0  0  0  0  0  0  0  0
    0.9894   12.1669   -2.9130 H   0  0  0  0  0  0  0  0  0  0  0  0
    2.1265   16.1996   -3.1530 H   0  0  0  0  0  0  0  0  0  0  0  0
    2.6896   15.4619   -4.6502 H   0  0  0  0  0  0  0  0  0  0  0  0
    1.1306   13.4530   -5.6850 H   0  0  0  0  0  0  0  0  0  0  0  0
   -0.3237   13.0432   -4.7794 H   0  0  0  0  0  0  0  0  0  0  0  0
   -4.3740   14.1980   -2.8236 H   0  0  0  0  0  0  0  0  0  0  0  0
   -4.2753   15.9689   -2.7804 H   0  0  0  0  0  0  0  0  0  0  0  0
    0.2930   15.5052   -4.7656 H   0  0  0  0  0  0  0  0  0  0  0  0
    0.0461   15.7240   -2.1750 H   0  0  0  0  0  0  0  0  0  0  0  0
   -0.0703   13.9525   -2.1816 H   0  0  0  0  0  0  0  0  0  0  0  0
  1  3  1  0  0  0  0
  1 15  2  0  0  0  0
  2 15  1  0  0  0  0
  2 16  2  0  0  0  0
  3  4  2  0  0  0  0
  3  6  1  0  0  0  0
  4 16  1  0  0  0  0
  4 17  1  0  0  0  0
  5 14  1  0  0  0  0
  5 17  1  0  0  0  0
  5 18  2  0  0  0  0
  6 12  1  0  0  0  0
  7  8  1  0  0  0  0
  7  9  1  0  0  0  0
  8 10  1  0  0  0  0
  9 11  1  0  0  0  0
 10 13  1  0  0  0  0
 11 13  1  0  0  0  0
 12 17  1  0  0  0  0
 13 14  1  0  0  0  0
  1 19  1  0  0  0  0
  2 20  1  0  0  0  0
  6 21  1  0  0  0  0
  6 22  1  0  0  0  0
  7 23  1  0  0  0  0
  7 24  1  0  0  0  0
  8 25  1  0  0  0  0
  8 26  1  0  0  0  0
  9 27  1  0  0  0  0
  9 28  1  0  0  0  0
 10 29  1  0  0  0  0
 10 30  1  0  0  0  0
 11 31  1  0  0  0  0
 11 32  1  0  0  0  0
 12 33  1  0  0  0  0
 12 34  1  0  0  0  0
 13 35  1  0  0  0  0
 14 36  1  0  0  0  0
 14 37  1  0  0  0  0
M  END
> <HYBRID receptor title>
5S18(A) > WOY(A-201)

> <HYBRID receptor filename>
5s18.oedu

> <HYBRID Chemgauss4 score>
-8.556643

> <HYBRID receptor title>
5S18(A) > WOY(A-201)

> <HYBRID receptor filename>
5s18.oedu

> <Dock Type>
Hybrid

$$$$
MOL0223_1
  -OEChem-06022418243D

 32 34  0     1  0  0  0  0  0999 V2000
   -0.9703   14.7526   -0.7668 C   0  0  0  0  0  0  0  0  0  0  0  0
    0.0489   14.6189    1.2735 C   0  0  0  0  0  0  0  0  0  0  0  0
   -2.1482   15.0738   -0.1442 C   0  0  0  0  0  0  0  0  0  0  0  0
   -2.1494   15.1550    1.2372 C   0  0  0  0  0  0  0  0  0  0  0  0
   -3.4907   15.3874   -0.7044 C   0  0  0  0  0  0  0  0  0  0  0  0
   -8.2513   13.6781    0.9405 C   0  0  0  0  0  0  0  0  0  0  0  0
   -7.3287   13.6687    2.1554 C   0  0  0  0  0  0  0  0  0  0  0  0
   -7.4719   13.4893   -0.3573 C   0  0  0  0  0  0  0  0  0  0  0  0
   -6.2087   14.6978    2.0202 C   0  0  0  0  0  0  0  0  0  0  0  0
   -6.3520   14.5180   -0.4966 C   0  0  0  0  0  0  0  0  0  0  0  0
   -5.4166   14.5055    0.7199 C   0  0  0  0  0  0  0  0  0  0  0  0
   -4.3377   15.5780    0.5818 C   0  0  1  0  0  0  0  0  0  0  0  0
    0.1604   14.5144   -0.0717 N   0  0  0  0  0  0  0  0  0  0  0  0
   -1.0561   14.9312    1.9849 N   0  0  0  0  0  0  0  0  0  0  0  0
   -3.4215   15.4935    1.7115 N   0  0  0  0  0  0  0  0  0  0  0  0
   -0.8892   14.6758   -1.8442 H   0  0  0  0  0  0  0  0  0  0  0  0
    0.9503   14.4306    1.8445 H   0  0  0  0  0  0  0  0  0  0  0  0
   -3.4486   16.3186   -1.2789 H   0  0  0  0  0  0  0  0  0  0  0  0
   -3.8570   14.5729   -1.3367 H   0  0  0  0  0  0  0  0  0  0  0  0
   -8.9998   12.8839    1.0398 H   0  0  0  0  0  0  0  0  0  0  0  0
   -8.7957   14.6297    0.9036 H   0  0  0  0  0  0  0  0  0  0  0  0
   -7.9109   13.8740    3.0609 H   0  0  0  0  0  0  0  0  0  0  0  0
   -6.8930   12.6692    2.2756 H   0  0  0  0  0  0  0  0  0  0  0  0
   -7.0447   12.4793   -0.3833 H   0  0  0  0  0  0  0  0  0  0  0  0
   -8.1544   13.5691   -1.2111 H   0  0  0  0  0  0  0  0  0  0  0  0
   -6.6411   15.7063    2.0483 H   0  0  0  0  0  0  0  0  0  0  0  0
   -5.5369   14.6169    2.8832 H   0  0  0  0  0  0  0  0  0  0  0  0
   -5.7815   14.3101   -1.4098 H   0  0  0  0  0  0  0  0  0  0  0  0
   -6.7929   15.5158   -0.6185 H   0  0  0  0  0  0  0  0  0  0  0  0
   -4.9172   13.5282    0.7611 H   0  0  0  0  0  0  0  0  0  0  0  0
   -4.8189   16.5620    0.5675 H   0  0  0  0  0  0  0  0  0  0  0  0
   -3.6662   15.5884    2.6847 H   0  0  0  0  0  0  0  0  0  0  0  0
  1  3  1  0  0  0  0
  1 13  2  0  0  0  0
  2 13  1  0  0  0  0
  2 14  2  0  0  0  0
  3  4  2  0  0  0  0
  3  5  1  0  0  0  0
  4 14  1  0  0  0  0
  4 15  1  0  0  0  0
  5 12  1  0  0  0  0
  6  7  1  0  0  0  0
  6  8  1  0  0  0  0
  7  9  1  0  0  0  0
  8 10  1  0  0  0  0
  9 11  1  0  0  0  0
 10 11  1  0  0  0  0
 11 12  1  0  0  0  0
 12 15  1  0  0  0  0
  1 16  1  0  0  0  0
  2 17  1  0  0  0  0
  5 18  1  0  0  0  0
  5 19  1  0  0  0  0
  6 20  1  0  0  0  0
  6 21  1  0  0  0  0
  7 22  1  0  0  0  0
  7 23  1  0  0  0  0
  8 24  1  0  0  0  0
  8 25  1  0  0  0  0
  9 26  1  0  0  0  0
  9 27  1  0  0  0  0
 10 28  1  0  0  0  0
 10 29  1  0  0  0  0
 11 30  1  0  0  0  0
 12 31  1  0  0  0  0
 15 32  1  0  0  0  0
M  END
> <HYBRID receptor title>
5S18(A) > WOY(A-201)

> <HYBRID receptor filename>
5s18.oedu

> <HYBRID Chemgauss4 score>
-8.440889

> <HYBRID receptor title>
5S18(A) > WOY(A-201)

> <HYBRID receptor filename>
5s18.oedu

> <Dock Type>
Hybrid

$$$$
MOL0076_13
  -OEChem-06022418243D

 31 33  0     0  0  0  0  0  0999 V2000
    3.0578   14.9338   -3.3446 C   0  0  0  0  0  0  0  0  0  0  0  0
    2.8073   13.5680   -3.4760 C   0  0  0  0  0  0  0  0  0  0  0  0
    1.9963   15.8263   -3.1945 C   0  0  0  0  0  0  0  0  0  0  0  0
    1.4954   13.0946   -3.4574 C   0  0  0  0  0  0  0  0  0  0  0  0
    0.6844   15.3529   -3.1759 C   0  0  0  0  0  0  0  0  0  0  0  0
   -0.2076   14.6195    0.6990 C   0  0  0  0  0  0  0  0  0  0  0  0
   -2.6242   14.9852   -0.3341 C   0  0  0  0  0  0  0  0  0  0  0  0
    0.4339   13.9870   -3.3074 C   0  0  0  0  0  0  0  0  0  0  0  0
   -2.3681   15.2130    1.0084 C   0  0  0  0  0  0  0  0  0  0  0  0
   -1.5889   14.5547   -1.1210 C   0  0  0  0  0  0  0  0  0  0  0  0
   -4.0563   15.2283   -0.6486 C   0  0  0  0  0  0  0  0  0  0  0  0
   -4.5467   15.8908    0.6570 C   0  0  0  0  0  0  0  0  0  0  0  0
   -0.9785   13.4781   -3.2875 C   0  0  0  0  0  0  0  0  0  0  0  0
   -1.1579   15.0372    1.5635 N   0  0  0  0  0  0  0  0  0  0  0  0
   -0.3499   14.3647   -0.6236 N   0  0  0  0  0  0  0  0  0  0  0  0
   -3.5335   15.6330    1.6664 N   0  0  0  0  0  0  0  0  0  0  0  0
   -1.8320   14.3003   -2.4888 N   0  0  0  0  0  0  0  0  0  0  0  0
    4.0795   15.3022   -3.3577 H   0  0  0  0  0  0  0  0  0  0  0  0
    3.6338   12.8728   -3.5917 H   0  0  0  0  0  0  0  0  0  0  0  0
    2.1910   16.8897   -3.0911 H   0  0  0  0  0  0  0  0  0  0  0  0
    1.3097   12.0287   -3.5606 H   0  0  0  0  0  0  0  0  0  0  0  0
   -0.1363   16.0556   -3.0587 H   0  0  0  0  0  0  0  0  0  0  0  0
    0.7839   14.4703    1.1102 H   0  0  0  0  0  0  0  0  0  0  0  0
   -4.1851   15.8982   -1.5036 H   0  0  0  0  0  0  0  0  0  0  0  0
   -4.5746   14.2804   -0.8262 H   0  0  0  0  0  0  0  0  0  0  0  0
   -4.6489   16.9732    0.5144 H   0  0  0  0  0  0  0  0  0  0  0  0
   -5.5221   15.4976    0.9617 H   0  0  0  0  0  0  0  0  0  0  0  0
   -1.3921   13.4475   -4.3015 H   0  0  0  0  0  0  0  0  0  0  0  0
   -1.0237   12.4600   -2.8869 H   0  0  0  0  0  0  0  0  0  0  0  0
   -3.5700   15.9197    2.6321 H   0  0  0  0  0  0  0  0  0  0  0  0
   -2.6435   14.7278   -2.8913 H   0  0  0  0  0  0  0  0  0  0  0  0
  1  2  1  0  0  0  0
  1  3  2  0  0  0  0
  2  4  2  0  0  0  0
  3  5  1  0  0  0  0
  4  8  1  0  0  0  0
  5  8  2  0  0  0  0
  6 14  1  0  0  0  0
  6 15  2  0  0  0  0
  7  9  1  0  0  0  0
  7 10  2  0  0  0  0
  7 11  1  0  0  0  0
  8 13  1  0  0  0  0
  9 14  2  0  0  0  0
  9 16  1  0  0  0  0
 10 15  1  0  0  0  0
 10 17  1  0  0  0  0
 11 12  1  0  0  0  0
 12 16  1  0  0  0  0
 13 17  1  0  0  0  0
  1 18  1  0  0  0  0
  2 19  1  0  0  0  0
  3 20  1  0  0  0  0
  4 21  1  0  0  0  0
  5 22  1  0  0  0  0
  6 23  1  0  0  0  0
 11 24  1  0  0  0  0
 11 25  1  0  0  0  0
 12 26  1  0  0  0  0
 12 27  1  0  0  0  0
 13 28  1  0  0  0  0
 13 29  1  0  0  0  0
 16 30  1  0  0  0  0
 17 31  1  0  0  0  0
M  END
> <HYBRID receptor title>
5S18(A) > WOY(A-201)

> <HYBRID receptor filename>
5s18.oedu

> <HYBRID Chemgauss4 score>
-8.350897

> <HYBRID receptor title>
5S18(A) > WOY(A-201)

> <HYBRID receptor filename>
5s18.oedu

> <Dock Type>
Hybrid

$$$$
MOL0108_2
  -OEChem-06022418243D

 27 29  0     0  0  0  0  0  0999 V2000
   -0.2797   14.5774    0.9807 C   0  0  0  0  0  0  0  0  0  0  0  0
   -2.5983   14.8926   -0.2708 C   0  0  0  0  0  0  0  0  0  0  0  0
   -2.4826   15.0774    1.0974 C   0  0  0  0  0  0  0  0  0  0  0  0
   -1.4718   14.5466   -0.9693 C   0  0  0  0  0  0  0  0  0  0  0  0
   -0.7773   13.4888   -3.1634 C   0  0  0  0  0  0  0  0  0  0  0  0
   -3.9868   15.1638   -0.7263 C   0  0  0  0  0  0  0  0  0  0  0  0
   -1.3060   13.5605   -4.5780 C   0  0  0  0  0  0  0  0  0  0  0  0
   -2.0617   14.8740   -4.6035 C   0  0  0  0  0  0  0  0  0  0  0  0
   -4.7325   15.2771    0.6209 C   0  0  0  0  0  0  0  0  0  0  0  0
   -2.5753   15.0112   -3.1856 C   0  0  0  0  0  0  0  0  0  0  0  0
   -1.3251   14.9269    1.7618 N   0  0  0  0  0  0  0  0  0  0  0  0
   -0.2816   14.3756   -0.3585 N   0  0  0  0  0  0  0  0  0  0  0  0
   -3.7198   15.4391    1.6505 N   0  0  0  0  0  0  0  0  0  0  0  0
   -1.5618   14.3577   -2.3802 N   0  0  0  0  0  0  0  0  0  0  0  0
    0.1307   12.7379   -2.8380 O   0  0  0  0  0  0  0  0  0  0  0  0
    0.6706   14.4413    1.4834 H   0  0  0  0  0  0  0  0  0  0  0  0
   -4.0618   16.0933   -1.2979 H   0  0  0  0  0  0  0  0  0  0  0  0
   -4.3674   14.3230   -1.3150 H   0  0  0  0  0  0  0  0  0  0  0  0
   -0.4577   13.5690   -5.2696 H   0  0  0  0  0  0  0  0  0  0  0  0
   -1.9576   12.7107   -4.7953 H   0  0  0  0  0  0  0  0  0  0  0  0
   -1.4293   15.7133   -4.9064 H   0  0  0  0  0  0  0  0  0  0  0  0
   -2.9035   14.8096   -5.3038 H   0  0  0  0  0  0  0  0  0  0  0  0
   -5.3882   16.1562    0.6155 H   0  0  0  0  0  0  0  0  0  0  0  0
   -5.3539   14.3955    0.8081 H   0  0  0  0  0  0  0  0  0  0  0  0
   -2.6326   16.0618   -2.8778 H   0  0  0  0  0  0  0  0  0  0  0  0
   -3.5504   14.5327   -3.0487 H   0  0  0  0  0  0  0  0  0  0  0  0
   -3.8311   15.9349    2.5212 H   0  0  0  0  0  0  0  0  0  0  0  0
  1 11  1  0  0  0  0
  1 12  2  0  0  0  0
  2  3  1  0  0  0  0
  2  4  2  0  0  0  0
  2  6  1  0  0  0  0
  3 11  2  0  0  0  0
  3 13  1  0  0  0  0
  4 12  1  0  0  0  0
  4 14  1  0  0  0  0
  5  7  1  0  0  0  0
  5 14  1  0  0  0  0
  5 15  2  0  0  0  0
  6  9  1  0  0  0  0
  7  8  1  0  0  0  0
  8 10  1  0  0  0  0
  9 13  1  0  0  0  0
 10 14  1  0  0  0  0
  1 16  1  0  0  0  0
  6 17  1  0  0  0  0
  6 18  1  0  0  0  0
  7 19  1  0  0  0  0
  7 20  1  0  0  0  0
  8 21  1  0  0  0  0
  8 22  1  0  0  0  0
  9 23  1  0  0  0  0
  9 24  1  0  0  0  0
 10 25  1  0  0  0  0
 10 26  1  0  0  0  0
 13 27  1  0  0  0  0
M  END
> <HYBRID receptor title>
5S18(A) > WOY(A-201)

> <HYBRID receptor filename>
5s18.oedu

> <HYBRID Chemgauss4 score>
-8.155554

> <HYBRID receptor title>
5S18(A) > WOY(A-201)

> <HYBRID receptor filename>
5s18.oedu

> <Dock Type>
Hybrid

$$$$
MOL0062_4
  -OEChem-06022418243D

 29 31  0     1  0  0  0  0  0999 V2000
   -2.6051   15.1043    1.4876 C   0  0  0  0  0  0  0  0  0  0  0  0
   -0.3755   14.8666    1.0507 C   0  0  0  0  0  0  0  0  0  0  0  0
   -2.8692   14.9568    0.1514 C   0  0  0  0  0  0  0  0  0  0  0  0
   -1.8000   14.7477   -0.7088 C   0  0  0  0  0  0  0  0  0  0  0  0
   -4.1565   14.9429   -0.5918 C   0  0  0  0  0  0  0  0  0  0  0  0
    0.0337   11.9895   -4.7978 C   0  0  0  0  0  0  0  0  0  0  0  0
    0.4144   13.4674   -4.5722 C   0  0  0  0  0  0  0  0  0  0  0  0
   -1.3084   12.3031   -4.1048 C   0  0  0  0  0  0  0  0  0  0  0  0
   -3.6517   15.0423   -2.0458 C   0  0  0  0  0  0  0  0  0  0  0  0
   -0.5785   13.4640   -3.3807 C   0  0  0  0  0  0  0  0  0  0  0  0
   -1.3759   14.7322   -3.1580 C   0  0  0  0  0  0  0  0  0  0  0  0
   -1.3475   15.0663    1.9717 N   0  0  0  0  0  0  0  0  0  0  0  0
   -0.5256   14.7008   -0.2817 N   0  0  0  0  0  0  0  0  0  0  0  0
   -2.2606   14.5981   -2.0304 N   0  0  1  0  0  0  0  0  0  0  0  0
   -3.3897   15.2587    2.2182 H   0  0  0  0  0  0  0  0  0  0  0  0
    0.6406   14.8390    1.4260 H   0  0  0  0  0  0  0  0  0  0  0  0
   -4.7218   14.0213   -0.4277 H   0  0  0  0  0  0  0  0  0  0  0  0
   -4.7612   15.8147   -0.3223 H   0  0  0  0  0  0  0  0  0  0  0  0
   -0.0320   11.6682   -5.8401 H   0  0  0  0  0  0  0  0  0  0  0  0
    0.6621   11.2828   -4.2436 H   0  0  0  0  0  0  0  0  0  0  0  0
    1.4613   13.6518   -4.3175 H   0  0  0  0  0  0  0  0  0  0  0  0
    0.1284   14.1245   -5.4020 H   0  0  0  0  0  0  0  0  0  0  0  0
   -2.0951   12.6215   -4.7989 H   0  0  0  0  0  0  0  0  0  0  0  0
   -1.7027   11.5146   -3.4586 H   0  0  0  0  0  0  0  0  0  0  0  0
   -4.2436   14.3797   -2.6908 H   0  0  0  0  0  0  0  0  0  0  0  0
   -3.7473   16.0624   -2.4328 H   0  0  0  0  0  0  0  0  0  0  0  0
   -0.1058   13.1407   -2.4451 H   0  0  0  0  0  0  0  0  0  0  0  0
   -0.6815   15.5650   -2.9725 H   0  0  0  0  0  0  0  0  0  0  0  0
   -1.9712   14.9447   -4.0582 H   0  0  0  0  0  0  0  0  0  0  0  0
  1  3  1  0  0  0  0
  1 12  2  0  0  0  0
  2 12  1  0  0  0  0
  2 13  2  0  0  0  0
  3  4  2  0  0  0  0
  3  5  1  0  0  0  0
  4 13  1  0  0  0  0
  4 14  1  0  0  0  0
  5  9  1  0  0  0  0
  6  7  1  0  0  0  0
  6  8  1  0  0  0  0
  7 10  1  0  0  0  0
  8 10  1  0  0  0  0
  9 14  1  0  0  0  0
 10 11  1  0  0  0  0
 11 14  1  0  0  0  0
  1 15  1  0  0  0  0
  2 16  1  0  0  0  0
  5 17  1  0  0  0  0
  5 18  1  0  0  0  0
  6 19  1  0  0  0  0
  6 20  1  0  0  0  0
  7 21  1  0  0  0  0
  7 22  1  0  0  0  0
  8 23  1  0  0  0  0
  8 24  1  0  0  0  0
  9 25  1  0  0  0  0
  9 26  1  0  0  0  0
 10 27  1  0  0  0  0
 11 28  1  0  0  0  0
 11 29  1  0  0  0  0
M  END
> <HYBRID receptor title>
5S18(A) > WOY(A-201)

> <HYBRID receptor filename>
5s18.oedu

> <HYBRID Chemgauss4 score>
-8.138996

> <HYBRID receptor title>
5S18(A) > WOY(A-201)

> <HYBRID receptor filename>
5s18.oedu

> <Dock Type>
Hybrid

$$$$
MOL0165_13
  -OEChem-06022418243D

 34 36  0     1  0  0  0  0  0999 V2000
   -1.0668   14.6927   -0.8137 C   0  0  0  0  0  0  0  0  0  0  0  0
    0.0503   14.7141    1.1796 C   0  0  0  0  0  0  0  0  0  0  0  0
   -2.2386   14.9490   -0.1492 C   0  0  0  0  0  0  0  0  0  0  0  0
   -2.1803   15.0880    1.2293 C   0  0  0  0  0  0  0  0  0  0  0  0
   -2.0773   12.2330   -4.6913 C   0  0  0  0  0  0  0  0  0  0  0  0
   -2.4110   13.3302   -5.6920 C   0  0  0  0  0  0  0  0  0  0  0  0
   -3.3287   12.0718   -3.8406 C   0  0  0  0  0  0  0  0  0  0  0  0
   -3.8376   13.7492   -5.3673 C   0  0  0  0  0  0  0  0  0  0  0  0
   -4.4239   15.1545    0.6905 C   0  0  0  0  0  0  0  0  0  0  0  0
   -3.6313   15.1682   -0.6430 C   0  0  2  0  0  0  0  0  0  0  0  0
   -4.1219   14.1156   -1.6244 C   0  0  0  0  0  0  0  0  0  0  0  0
   -3.5925   14.3333   -3.0375 C   0  0  0  0  0  0  0  0  0  0  0  0
    0.1082   14.5633   -0.1644 N   0  0  0  0  0  0  0  0  0  0  0  0
   -1.0406   14.9763    1.9313 N   0  0  0  0  0  0  0  0  0  0  0  0
   -3.4533   15.3560    1.7536 N   0  0  0  0  0  0  0  0  0  0  0  0
   -4.0904   13.3196   -3.9855 N   0  0  0  0  0  0  0  0  0  0  0  0
   -1.0240   14.5868   -1.8909 H   0  0  0  0  0  0  0  0  0  0  0  0
    0.9881   14.6137    1.7130 H   0  0  0  0  0  0  0  0  0  0  0  0
   -1.8089   11.2948   -5.1898 H   0  0  0  0  0  0  0  0  0  0  0  0
   -1.2236   12.5390   -4.0735 H   0  0  0  0  0  0  0  0  0  0  0  0
   -1.7200   14.1729   -5.5651 H   0  0  0  0  0  0  0  0  0  0  0  0
   -2.3228   12.9789   -6.7263 H   0  0  0  0  0  0  0  0  0  0  0  0
   -3.9140   11.2033   -4.2048 H   0  0  0  0  0  0  0  0  0  0  0  0
   -3.0734   11.8690   -2.7834 H   0  0  0  0  0  0  0  0  0  0  0  0
   -3.9737   14.8407   -5.4879 H   0  0  0  0  0  0  0  0  0  0  0  0
   -4.5376   13.2565   -6.0725 H   0  0  0  0  0  0  0  0  0  0  0  0
   -5.1870   15.9399    0.7025 H   0  0  0  0  0  0  0  0  0  0  0  0
   -4.9297   14.1936    0.8457 H   0  0  0  0  0  0  0  0  0  0  0  0
   -3.6919   16.1657   -1.0955 H   0  0  0  0  0  0  0  0  0  0  0  0
   -5.2180   14.1421   -1.6502 H   0  0  0  0  0  0  0  0  0  0  0  0
   -3.8310   13.1212   -1.2638 H   0  0  0  0  0  0  0  0  0  0  0  0
   -3.9160   15.3090   -3.4135 H   0  0  0  0  0  0  0  0  0  0  0  0
   -2.4986   14.3050   -3.0602 H   0  0  0  0  0  0  0  0  0  0  0  0
   -3.6580   15.4225    2.7387 H   0  0  0  0  0  0  0  0  0  0  0  0
  1  3  1  0  0  0  0
  1 13  2  0  0  0  0
  2 13  1  0  0  0  0
  2 14  2  0  0  0  0
  3  4  2  0  0  0  0
  3 10  1  0  0  0  0
  4 14  1  0  0  0  0
  4 15  1  0  0  0  0
  5  6  1  0  0  0  0
  5  7  1  0  0  0  0
  6  8  1  0  0  0  0
  7 16  1  0  0  0  0
  8 16  1  0  0  0  0
  9 10  1  0  0  0  0
  9 15  1  0  0  0  0
 10 11  1  0  0  0  0
 11 12  1  0  0  0  0
 12 16  1  0  0  0  0
  1 17  1  0  0  0  0
  2 18  1  0  0  0  0
  5 19  1  0  0  0  0
  5 20  1  0  0  0  0
  6 21  1  0  0  0  0
  6 22  1  0  0  0  0
  7 23  1  0  0  0  0
  7 24  1  0  0  0  0
  8 25  1  0  0  0  0
  8 26  1  0  0  0  0
  9 27  1  0  0  0  0
  9 28  1  0  0  0  0
 10 29  1  0  0  0  0
 11 30  1  0  0  0  0
 11 31  1  0  0  0  0
 12 32  1  0  0  0  0
 12 33  1  0  0  0  0
 15 34  1  0  0  0  0
M  END
> <HYBRID receptor title>
5S18(A) > WOY(A-201)

> <HYBRID receptor filename>
5s18.oedu

> <HYBRID Chemgauss4 score>
-8.137259

> <HYBRID receptor title>
5S18(A) > WOY(A-201)

> <HYBRID receptor filename>
5s18.oedu

> <Dock Type>
Hybrid

$$$$
MOL0069_5
  -OEChem-06022418243D

 25 27  0     1  0  0  0  0  0999 V2000
   -4.5650   13.5176   -3.8648 C   0  0  0  0  0  0  0  0  0  0  0  0
   -3.9584   14.3685   -2.9475 C   0  0  0  0  0  0  0  0  0  0  0  0
   -5.7483   12.9003   -3.4927 C   0  0  0  0  0  0  0  0  0  0  0  0
   -5.7298   13.9088   -1.4285 C   0  0  0  0  0  0  0  0  0  0  0  0
   -1.4142   14.7467   -0.9076 C   0  0  0  0  0  0  0  0  0  0  0  0
   -0.2931   14.5272    1.0708 C   0  0  0  0  0  0  0  0  0  0  0  0
   -4.5455   14.5732   -1.7038 C   0  0  0  0  0  0  0  0  0  0  0  0
   -2.5484   15.0891   -0.2156 C   0  0  0  0  0  0  0  0  0  0  0  0
   -2.4680   15.1457    1.1671 C   0  0  0  0  0  0  0  0  0  0  0  0
   -4.6889   15.5622    0.6611 C   0  0  0  0  0  0  0  0  0  0  0  0
   -3.9120   15.4914   -0.6864 C   0  0  2  0  0  0  0  0  0  0  0  0
   -6.3485   13.0746   -2.2939 N   0  0  0  0  0  0  0  0  0  0  0  0
   -0.2580   14.4502   -0.2802 N   0  0  0  0  0  0  0  0  0  0  0  0
   -1.3442   14.8663    1.8481 N   0  0  0  0  0  0  0  0  0  0  0  0
   -3.6940   15.5361    1.7211 N   0  0  0  0  0  0  0  0  0  0  0  0
   -4.1255   13.3433   -4.8402 H   0  0  0  0  0  0  0  0  0  0  0  0
   -3.0296   14.8675   -3.2102 H   0  0  0  0  0  0  0  0  0  0  0  0
   -6.2604   12.2271   -4.1724 H   0  0  0  0  0  0  0  0  0  0  0  0
   -6.2341   14.0295   -0.4748 H   0  0  0  0  0  0  0  0  0  0  0  0
   -1.3888   14.7014   -1.9897 H   0  0  0  0  0  0  0  0  0  0  0  0
    0.6293   14.2918    1.5887 H   0  0  0  0  0  0  0  0  0  0  0  0
   -5.2882   16.4778    0.7159 H   0  0  0  0  0  0  0  0  0  0  0  0
   -5.3701   14.7115    0.7875 H   0  0  0  0  0  0  0  0  0  0  0  0
   -3.8451   16.5137   -1.1259 H   0  0  0  0  0  0  0  0  0  0  0  0
   -3.8802   15.5924    2.7102 H   0  0  0  0  0  0  0  0  0  0  0  0
  1  2  2  0  0  0  0
  1  3  1  0  0  0  0
  2  7  1  0  0  0  0
  3 12  2  0  0  0  0
  4  7  2  0  0  0  0
  4 12  1  0  0  0  0
  5  8  1  0  0  0  0
  5 13  2  0  0  0  0
  6 13  1  0  0  0  0
  6 14  2  0  0  0  0
  7 11  1  0  0  0  0
  8  9  2  0  0  0  0
  8 11  1  0  0  0  0
  9 14  1  0  0  0  0
  9 15  1  0  0  0  0
 10 11  1  0  0  0  0
 10 15  1  0  0  0  0
  1 16  1  0  0  0  0
  2 17  1  0  0  0  0
  3 18  1  0  0  0  0
  4 19  1  0  0  0  0
  5 20  1  0  0  0  0
  6 21  1  0  0  0  0
 10 22  1  0  0  0  0
 10 23  1  0  0  0  0
 11 24  1  0  0  0  0
 15 25  1  0  0  0  0
M  END
> <HYBRID receptor title>
5S18(A) > WOY(A-201)

> <HYBRID receptor filename>
5s18.oedu

> <HYBRID Chemgauss4 score>
-8.070323

> <HYBRID receptor title>
5S18(A) > WOY(A-201)

> <HYBRID receptor filename>
5s18.oedu

> <Dock Type>
Hybrid

$$$$
MOL0088_4
  -OEChem-06022418243D

 34 36  0     0  0  0  0  0  0999 V2000
   -2.6230   10.4348   -4.7345 C   0  0  0  0  0  0  0  0  0  0  0  0
   -1.2286   10.4148   -4.7609 C   0  0  0  0  0  0  0  0  0  0  0  0
   -3.3024   11.6524   -4.6934 C   0  0  0  0  0  0  0  0  0  0  0  0
   -0.5135   11.6123   -4.7461 C   0  0  0  0  0  0  0  0  0  0  0  0
   -2.5873   12.8499   -4.6786 C   0  0  0  0  0  0  0  0  0  0  0  0
   -0.0994   14.7536    0.9211 C   0  0  0  0  0  0  0  0  0  0  0  0
   -2.3902   15.0580   -0.3833 C   0  0  0  0  0  0  0  0  0  0  0  0
   -1.1928   12.8299   -4.7049 C   0  0  0  0  0  0  0  0  0  0  0  0
   -2.3351   15.0873    1.0008 C   0  0  0  0  0  0  0  0  0  0  0  0
   -1.2207   14.8582   -1.0680 C   0  0  0  0  0  0  0  0  0  0  0  0
   -3.7886   15.2159   -0.8611 C   0  0  0  0  0  0  0  0  0  0  0  0
   -4.5137   15.6096    0.4441 C   0  0  0  0  0  0  0  0  0  0  0  0
   -0.4199   14.1258   -4.6886 C   0  0  0  0  0  0  0  0  0  0  0  0
   -0.0887   14.6039   -3.2770 C   0  0  0  0  0  0  0  0  0  0  0  0
   -1.1937   14.9360    1.6921 N   0  0  0  0  0  0  0  0  0  0  0  0
   -0.0419   14.7048   -0.4312 N   0  0  0  0  0  0  0  0  0  0  0  0
   -3.6151   15.2858    1.5393 N   0  0  0  0  0  0  0  0  0  0  0  0
   -1.2566   14.8079   -2.4790 N   0  0  0  0  0  0  0  0  0  0  0  0
   -3.1797    9.5023   -4.7475 H   0  0  0  0  0  0  0  0  0  0  0  0
   -0.6994    9.4669   -4.7940 H   0  0  0  0  0  0  0  0  0  0  0  0
   -4.3881   11.6683   -4.6740 H   0  0  0  0  0  0  0  0  0  0  0  0
    0.5729   11.5870   -4.7667 H   0  0  0  0  0  0  0  0  0  0  0  0
   -3.1251   13.7938   -4.6464 H   0  0  0  0  0  0  0  0  0  0  0  0
    0.8418   14.6315    1.4439 H   0  0  0  0  0  0  0  0  0  0  0  0
   -3.8824   16.0011   -1.6168 H   0  0  0  0  0  0  0  0  0  0  0  0
   -4.1690   14.2658   -1.2499 H   0  0  0  0  0  0  0  0  0  0  0  0
   -4.7191   16.6867    0.4502 H   0  0  0  0  0  0  0  0  0  0  0  0
   -5.4690   15.0839    0.5435 H   0  0  0  0  0  0  0  0  0  0  0  0
   -1.0149   14.8924   -5.2009 H   0  0  0  0  0  0  0  0  0  0  0  0
    0.5008   14.0160   -5.2758 H   0  0  0  0  0  0  0  0  0  0  0  0
    0.5184   13.8530   -2.7617 H   0  0  0  0  0  0  0  0  0  0  0  0
    0.4709   15.5450   -3.2901 H   0  0  0  0  0  0  0  0  0  0  0  0
   -3.8069   15.4073    2.5214 H   0  0  0  0  0  0  0  0  0  0  0  0
   -2.1517   14.9244   -2.9132 H   0  0  0  0  0  0  0  0  0  0  0  0
  1  2  1  0  0  0  0
  1  3  2  0  0  0  0
  2  4  2  0  0  0  0
  3  5  1  0  0  0  0
  4  8  1  0  0  0  0
  5  8  2  0  0  0  0
  6 15  1  0  0  0  0
  6 16  2  0  0  0  0
  7  9  1  0  0  0  0
  7 10  2  0  0  0  0
  7 11  1  0  0  0  0
  8 13  1  0  0  0  0
  9 15  2  0  0  0  0
  9 17  1  0  0  0  0
 10 16  1  0  0  0  0
 10 18  1  0  0  0  0
 11 12  1  0  0  0  0
 12 17  1  0  0  0  0
 13 14  1  0  0  0  0
 14 18  1  0  0  0  0
  1 19  1  0  0  0  0
  2 20  1  0  0  0  0
  3 21  1  0  0  0  0
  4 22  1  0  0  0  0
  5 23  1  0  0  0  0
  6 24  1  0  0  0  0
 11 25  1  0  0  0  0
 11 26  1  0  0  0  0
 12 27  1  0  0  0  0
 12 28  1  0  0  0  0
 13 29  1  0  0  0  0
 13 30  1  0  0  0  0
 14 31  1  0  0  0  0
 14 32  1  0  0  0  0
 17 33  1  0  0  0  0
 18 34  1  0  0  0  0
M  END
> <HYBRID receptor title>
5S18(A) > WOY(A-201)

> <HYBRID receptor filename>
5s18.oedu

> <HYBRID Chemgauss4 score>
-7.981671

> <HYBRID receptor title>
5S18(A) > WOY(A-201)

> <HYBRID receptor filename>
5s18.oedu

> <Dock Type>
Hybrid

$$$$
MOL0170_6
  -OEChem-06022418243D

 29 31  0     1  0  0  0  0  0999 V2000
   -5.0031   12.2320   -5.6689 C   0  0  0  0  0  0  0  0  0  0  0  0
   -1.0123   14.7094   -0.8891 C   0  0  0  0  0  0  0  0  0  0  0  0
   -4.9789   13.4354   -5.0042 C   0  0  0  0  0  0  0  0  0  0  0  0
    0.0814   14.7769    1.1162 C   0  0  0  0  0  0  0  0  0  0  0  0
   -3.4286   12.0646   -4.2465 C   0  0  0  0  0  0  0  0  0  0  0  0
   -2.1983   14.9369   -0.2395 C   0  0  0  0  0  0  0  0  0  0  0  0
   -2.1594   15.0872    1.1385 C   0  0  0  0  0  0  0  0  0  0  0  0
   -4.3978   15.0858    0.5745 C   0  0  0  0  0  0  0  0  0  0  0  0
   -3.5910   15.1126   -0.7502 C   0  0  2  0  0  0  0  0  0  0  0  0
   -4.0403   14.0395   -1.7291 C   0  0  0  0  0  0  0  0  0  0  0  0
   -3.5342   14.3279   -3.1405 C   0  0  0  0  0  0  0  0  0  0  0  0
    0.1586   14.6183   -0.2259 N   0  0  0  0  0  0  0  0  0  0  0  0
   -4.0358   11.3830   -5.1924 N   0  0  0  0  0  0  0  0  0  0  0  0
   -1.0249   15.0131    1.8539 N   0  0  0  0  0  0  0  0  0  0  0  0
   -3.9655   13.3129   -4.0958 N   0  0  0  0  0  0  0  0  0  0  0  0
   -3.4454   15.3225    1.6467 N   0  0  0  0  0  0  0  0  0  0  0  0
   -5.6680   11.9338   -6.4664 H   0  0  0  0  0  0  0  0  0  0  0  0
   -0.9543   14.5971   -1.9649 H   0  0  0  0  0  0  0  0  0  0  0  0
   -5.5730   14.3339   -5.0959 H   0  0  0  0  0  0  0  0  0  0  0  0
    1.0156   14.7071    1.6607 H   0  0  0  0  0  0  0  0  0  0  0  0
   -2.6036   11.7106   -3.6434 H   0  0  0  0  0  0  0  0  0  0  0  0
   -5.1831   15.8491    0.5722 H   0  0  0  0  0  0  0  0  0  0  0  0
   -4.8777   14.1120    0.7312 H   0  0  0  0  0  0  0  0  0  0  0  0
   -3.6748   16.1048   -1.2108 H   0  0  0  0  0  0  0  0  0  0  0  0
   -3.6728   13.0643   -1.3887 H   0  0  0  0  0  0  0  0  0  0  0  0
   -5.1353   13.9831   -1.7253 H   0  0  0  0  0  0  0  0  0  0  0  0
   -2.4385   14.3648   -3.1657 H   0  0  0  0  0  0  0  0  0  0  0  0
   -3.8981   15.2983   -3.4986 H   0  0  0  0  0  0  0  0  0  0  0  0
   -3.6630   15.3901    2.6289 H   0  0  0  0  0  0  0  0  0  0  0  0
  1  3  2  0  0  0  0
  1 13  1  0  0  0  0
  2  6  1  0  0  0  0
  2 12  2  0  0  0  0
  3 15  1  0  0  0  0
  4 12  1  0  0  0  0
  4 14  2  0  0  0  0
  5 13  2  0  0  0  0
  5 15  1  0  0  0  0
  6  7  2  0  0  0  0
  6  9  1  0  0  0  0
  7 14  1  0  0  0  0
  7 16  1  0  0  0  0
  8  9  1  0  0  0  0
  8 16  1  0  0  0  0
  9 10  1  0  0  0  0
 10 11  1  0  0  0  0
 11 15  1  0  0  0  0
  1 17  1  0  0  0  0
  2 18  1  0  0  0  0
  3 19  1  0  0  0  0
  4 20  1  0  0  0  0
  5 21  1  0  0  0  0
  8 22  1  0  0  0  0
  8 23  1  0  0  0  0
  9 24  1  0  0  0  0
 10 25  1  0  0  0  0
 10 26  1  0  0  0  0
 11 27  1  0  0  0  0
 11 28  1  0  0  0  0
 16 29  1  0  0  0  0
M  END
> <HYBRID receptor title>
5S18(A) > WOY(A-201)

> <HYBRID receptor filename>
5s18.oedu

> <HYBRID Chemgauss4 score>
-7.910254

> <HYBRID receptor title>
5S18(A) > WOY(A-201)

> <HYBRID receptor filename>
5s18.oedu

> <Dock Type>
Hybrid

$$$$
MOL0110_11
  -OEChem-06022418243D

 29 31  0     1  0  0  0  0  0999 V2000
   -1.1947   14.9918   -0.9160 C   0  0  0  0  0  0  0  0  0  0  0  0
   -0.1060   14.8533    1.0883 C   0  0  0  0  0  0  0  0  0  0  0  0
   -2.3868   15.1147   -0.2496 C   0  0  0  0  0  0  0  0  0  0  0  0
   -2.3536   15.1059    1.1367 C   0  0  0  0  0  0  0  0  0  0  0  0
   -8.0123   15.0996   -2.2613 C   0  0  0  0  0  0  0  0  0  0  0  0
   -7.5792   13.8908   -1.4795 C   0  0  0  0  0  0  0  0  0  0  0  0
   -4.5905   15.1166    0.5669 C   0  0  0  0  0  0  0  0  0  0  0  0
   -3.7826   15.3152   -0.7425 C   0  0  2  0  0  0  0  0  0  0  0  0
   -6.6246   15.0339   -1.6861 C   0  0  0  0  0  0  0  0  0  0  0  0
   -4.2046   14.3518   -1.8405 C   0  0  0  0  0  0  0  0  0  0  0  0
   -5.4224   14.8708   -2.6023 C   0  0  0  0  0  0  0  0  0  0  0  0
   -0.0230   14.8525   -0.2629 N   0  0  0  0  0  0  0  0  0  0  0  0
   -1.2187   14.9767    1.8435 N   0  0  0  0  0  0  0  0  0  0  0  0
   -3.6456   15.2505    1.6632 N   0  0  0  0  0  0  0  0  0  0  0  0
   -1.1326   15.0057   -1.9974 H   0  0  0  0  0  0  0  0  0  0  0  0
    0.8288   14.7433    1.6250 H   0  0  0  0  0  0  0  0  0  0  0  0
   -8.1361   14.9893   -3.3315 H   0  0  0  0  0  0  0  0  0  0  0  0
   -8.7195   15.7746   -1.7950 H   0  0  0  0  0  0  0  0  0  0  0  0
   -7.9957   13.7553   -0.4889 H   0  0  0  0  0  0  0  0  0  0  0  0
   -7.4132   12.9707   -2.0261 H   0  0  0  0  0  0  0  0  0  0  0  0
   -5.3938   15.8563    0.6492 H   0  0  0  0  0  0  0  0  0  0  0  0
   -5.0472   14.1202    0.6082 H   0  0  0  0  0  0  0  0  0  0  0  0
   -3.8896   16.3516   -1.0860 H   0  0  0  0  0  0  0  0  0  0  0  0
   -6.4037   15.6650   -0.8337 H   0  0  0  0  0  0  0  0  0  0  0  0
   -3.3668   14.2056   -2.5322 H   0  0  0  0  0  0  0  0  0  0  0  0
   -4.4316   13.3761   -1.3952 H   0  0  0  0  0  0  0  0  0  0  0  0
   -5.1888   15.8371   -3.0646 H   0  0  0  0  0  0  0  0  0  0  0  0
   -5.6786   14.1776   -3.4120 H   0  0  0  0  0  0  0  0  0  0  0  0
   -3.8662   15.1992    2.6458 H   0  0  0  0  0  0  0  0  0  0  0  0
  1  3  1  0  0  0  0
  1 12  2  0  0  0  0
  2 12  1  0  0  0  0
  2 13  2  0  0  0  0
  3  4  2  0  0  0  0
  3  8  1  0  0  0  0
  4 13  1  0  0  0  0
  4 14  1  0  0  0  0
  5  6  1  0  0  0  0
  5  9  1  0  0  0  0
  6  9  1  0  0  0  0
  7  8  1  0  0  0  0
  7 14  1  0  0  0  0
  8 10  1  0  0  0  0
  9 11  1  0  0  0  0
 10 11  1  0  0  0  0
  1 15  1  0  0  0  0
  2 16  1  0  0  0  0
  5 17  1  0  0  0  0
  5 18  1  0  0  0  0
  6 19  1  0  0  0  0
  6 20  1  0  0  0  0
  7 21  1  0  0  0  0
  7 22  1  0  0  0  0
  8 23  1  0  0  0  0
  9 24  1  0  0  0  0
 10 25  1  0  0  0  0
 10 26  1  0  0  0  0
 11 27  1  0  0  0  0
 11 28  1  0  0  0  0
 14 29  1  0  0  0  0
M  END
> <HYBRID receptor title>
5S18(A) > WOY(A-201)

> <HYBRID receptor filename>
5s18.oedu

> <HYBRID Chemgauss4 score>
-7.902514

> <HYBRID receptor title>
5S18(A) > WOY(A-201)

> <HYBRID receptor filename>
5s18.oedu

> <Dock Type>
Hybrid

$$$$
MOL0078_6
  -OEChem-06022418243D

 26 28  0     1  0  0  0  0  0999 V2000
   -1.0045   14.6907   -0.7746 C   0  0  0  0  0  0  0  0  0  0  0  0
    0.0296   14.4492    1.2488 C   0  0  0  0  0  0  0  0  0  0  0  0
   -2.1679   15.0242   -0.1299 C   0  0  0  0  0  0  0  0  0  0  0  0
   -2.1494   15.0575    1.2563 C   0  0  0  0  0  0  0  0  0  0  0  0
   -2.2414   14.1276   -3.5334 C   0  0  0  0  0  0  0  0  0  0  0  0
   -3.5600   13.7811   -4.1668 C   0  0  0  0  0  0  0  0  0  0  0  0
   -4.3506   15.4043    0.6539 C   0  0  0  0  0  0  0  0  0  0  0  0
   -3.5093   15.4271   -0.6493 C   0  0  2  0  0  0  0  0  0  0  0  0
   -3.4994   14.8094   -3.0715 C   0  0  0  0  0  0  0  0  0  0  0  0
   -4.0692   14.5063   -1.7218 C   0  0  0  0  0  0  0  0  0  0  0  0
    0.1239   14.3892   -0.1003 N   0  0  0  0  0  0  0  0  0  0  0  0
   -1.0562   14.7736    1.9834 N   0  0  0  0  0  0  0  0  0  0  0  0
   -3.4066   15.4235    1.7590 N   0  0  0  0  0  0  0  0  0  0  0  0
   -0.9309   14.6577   -1.8548 H   0  0  0  0  0  0  0  0  0  0  0  0
    0.9299   14.2103    1.8024 H   0  0  0  0  0  0  0  0  0  0  0  0
   -1.7840   13.3891   -2.8867 H   0  0  0  0  0  0  0  0  0  0  0  0
   -1.5388   14.7088   -4.1179 H   0  0  0  0  0  0  0  0  0  0  0  0
   -3.7418   14.1302   -5.1758 H   0  0  0  0  0  0  0  0  0  0  0  0
   -3.9856   12.8104   -3.9444 H   0  0  0  0  0  0  0  0  0  0  0  0
   -5.0265   16.2646    0.7007 H   0  0  0  0  0  0  0  0  0  0  0  0
   -4.9606   14.4951    0.7206 H   0  0  0  0  0  0  0  0  0  0  0  0
   -3.4464   16.4550   -1.0274 H   0  0  0  0  0  0  0  0  0  0  0  0
   -3.6387   15.8475   -3.3480 H   0  0  0  0  0  0  0  0  0  0  0  0
   -3.8474   13.4659   -1.4604 H   0  0  0  0  0  0  0  0  0  0  0  0
   -5.1591   14.6095   -1.7575 H   0  0  0  0  0  0  0  0  0  0  0  0
   -3.6417   15.4414    2.7394 H   0  0  0  0  0  0  0  0  0  0  0  0
  1  3  1  0  0  0  0
  1 11  2  0  0  0  0
  2 11  1  0  0  0  0
  2 12  2  0  0  0  0
  3  4  2  0  0  0  0
  3  8  1  0  0  0  0
  4 12  1  0  0  0  0
  4 13  1  0  0  0  0
  5  6  1  0  0  0  0
  5  9  1  0  0  0  0
  6  9  1  0  0  0  0
  7  8  1  0  0  0  0
  7 13  1  0  0  0  0
  8 10  1  0  0  0  0
  9 10  1  0  0  0  0
  1 14  1  0  0  0  0
  2 15  1  0  0  0  0
  5 16  1  0  0  0  0
  5 17  1  0  0  0  0
  6 18  1  0  0  0  0
  6 19  1  0  0  0  0
  7 20  1  0  0  0  0
  7 21  1  0  0  0  0
  8 22  1  0  0  0  0
  9 23  1  0  0  0  0
 10 24  1  0  0  0  0
 10 25  1  0  0  0  0
 13 26  1  0  0  0  0
M  END
> <HYBRID receptor title>
5S18(A) > WOY(A-201)

> <HYBRID receptor filename>
5s18.oedu

> <HYBRID Chemgauss4 score>
-7.868467

> <HYBRID receptor title>
5S18(A) > WOY(A-201)

> <HYBRID receptor filename>
5s18.oedu

> <Dock Type>
Hybrid

$$$$
MOL0084_1
  -OEChem-06022418243D

 28 30  0     0  0  0  0  0  0999 V2000
   -0.1413   14.6205    1.0599 C   0  0  0  0  0  0  0  0  0  0  0  0
   -2.4033   14.8767   -0.3037 C   0  0  0  0  0  0  0  0  0  0  0  0
   -2.3352   15.1704    1.0486 C   0  0  0  0  0  0  0  0  0  0  0  0
   -1.2629   14.4388   -0.9235 C   0  0  0  0  0  0  0  0  0  0  0  0
   -3.7844   15.0680   -0.8183 C   0  0  0  0  0  0  0  0  0  0  0  0
   -1.9692   13.1321   -4.3449 C   0  0  0  0  0  0  0  0  0  0  0  0
   -0.8210   14.0846   -4.6102 C   0  0  0  0  0  0  0  0  0  0  0  0
   -4.4596   15.7749    0.3770 C   0  0  0  0  0  0  0  0  0  0  0  0
   -2.4976   13.6091   -2.9969 C   0  0  0  0  0  0  0  0  0  0  0  0
   -0.1913   14.2448   -3.2312 C   0  0  0  0  0  0  0  0  0  0  0  0
   -1.2078   15.0512    1.7685 N   0  0  0  0  0  0  0  0  0  0  0  0
   -0.0988   14.3035   -0.2563 N   0  0  0  0  0  0  0  0  0  0  0  0
   -3.5869   15.5887    1.5240 N   0  0  0  0  0  0  0  0  0  0  0  0
   -1.3139   14.1186   -2.2936 N   0  0  0  0  0  0  0  0  0  0  0  0
    0.7883   14.5156    1.6067 H   0  0  0  0  0  0  0  0  0  0  0  0
   -3.8099   15.6958   -1.7137 H   0  0  0  0  0  0  0  0  0  0  0  0
   -4.2550   14.1000   -1.0184 H   0  0  0  0  0  0  0  0  0  0  0  0
   -2.7319   13.1694   -5.1277 H   0  0  0  0  0  0  0  0  0  0  0  0
   -1.6010   12.1024   -4.2666 H   0  0  0  0  0  0  0  0  0  0  0  0
   -0.1150   13.6914   -5.3469 H   0  0  0  0  0  0  0  0  0  0  0  0
   -1.1993   15.0485   -4.9706 H   0  0  0  0  0  0  0  0  0  0  0  0
   -4.5631   16.8468    0.1706 H   0  0  0  0  0  0  0  0  0  0  0  0
   -5.4591   15.3702    0.5666 H   0  0  0  0  0  0  0  0  0  0  0  0
   -3.2234   14.4258   -3.1189 H   0  0  0  0  0  0  0  0  0  0  0  0
   -2.9843   12.7925   -2.4460 H   0  0  0  0  0  0  0  0  0  0  0  0
    0.5367   13.4457   -3.0303 H   0  0  0  0  0  0  0  0  0  0  0  0
    0.3206   15.2118   -3.1341 H   0  0  0  0  0  0  0  0  0  0  0  0
   -3.7591   15.9170    2.4614 H   0  0  0  0  0  0  0  0  0  0  0  0
  1 11  1  0  0  0  0
  1 12  2  0  0  0  0
  2  3  1  0  0  0  0
  2  4  2  0  0  0  0
  2  5  1  0  0  0  0
  3 11  2  0  0  0  0
  3 13  1  0  0  0  0
  4 12  1  0  0  0  0
  4 14  1  0  0  0  0
  5  8  1  0  0  0  0
  6  7  1  0  0  0  0
  6  9  1  0  0  0  0
  7 10  1  0  0  0  0
  8 13  1  0  0  0  0
  9 14  1  0  0  0  0
 10 14  1  0  0  0  0
  1 15  1  0  0  0  0
  5 16  1  0  0  0  0
  5 17  1  0  0  0  0
  6 18  1  0  0  0  0
  6 19  1  0  0  0  0
  7 20  1  0  0  0  0
  7 21  1  0  0  0  0
  8 22  1  0  0  0  0
  8 23  1  0  0  0  0
  9 24  1  0  0  0  0
  9 25  1  0  0  0  0
 10 26  1  0  0  0  0
 10 27  1  0  0  0  0
 13 28  1  0  0  0  0
M  END
> <HYBRID receptor title>
5S18(A) > WOY(A-201)

> <HYBRID receptor filename>
5s18.oedu

> <HYBRID Chemgauss4 score>
-7.854142

> <HYBRID receptor title>
5S18(A) > WOY(A-201)

> <HYBRID receptor filename>
5s18.oedu

> <Dock Type>
Hybrid

$$$$
MOL0166_14
  -OEChem-06022418243D

 37 39  0     1  0  0  0  0  0999 V2000
   -1.3034   14.5529   -1.0682 C   0  0  0  0  0  0  0  0  0  0  0  0
   -0.1241   14.6982    0.8837 C   0  0  0  0  0  0  0  0  0  0  0  0
   -2.4584   14.8216   -0.3797 C   0  0  0  0  0  0  0  0  0  0  0  0
   -2.3591   15.0328    0.9872 C   0  0  0  0  0  0  0  0  0  0  0  0
   -2.3135   12.1928   -6.0125 C   0  0  0  0  0  0  0  0  0  0  0  0
   -2.2407   11.7613   -4.5517 C   0  0  0  0  0  0  0  0  0  0  0  0
   -3.1012   13.4905   -6.1574 C   0  0  0  0  0  0  0  0  0  0  0  0
   -3.6316   11.7249   -3.9130 C   0  0  0  0  0  0  0  0  0  0  0  0
   -4.4625   13.3945   -5.4636 C   0  0  0  0  0  0  0  0  0  0  0  0
   -4.6196   15.0297    0.5196 C   0  0  0  0  0  0  0  0  0  0  0  0
   -3.8703   14.9890   -0.8381 C   0  0  2  0  0  0  0  0  0  0  0  0
   -4.3709   13.8769   -1.7487 C   0  0  0  0  0  0  0  0  0  0  0  0
   -3.8908   14.0321   -3.1867 C   0  0  0  0  0  0  0  0  0  0  0  0
   -0.1059   14.4792   -0.4521 N   0  0  0  0  0  0  0  0  0  0  0  0
   -1.1956   14.9787    1.6563 N   0  0  0  0  0  0  0  0  0  0  0  0
   -3.6199   15.3040    1.5386 N   0  0  0  0  0  0  0  0  0  0  0  0
   -4.3927   12.9727   -4.0584 N   0  0  0  0  0  0  0  0  0  0  0  0
   -1.2928   14.3922   -2.1394 H   0  0  0  0  0  0  0  0  0  0  0  0
    0.8320   14.6430    1.3905 H   0  0  0  0  0  0  0  0  0  0  0  0
   -1.2965   12.3367   -6.4025 H   0  0  0  0  0  0  0  0  0  0  0  0
   -2.7773   11.4020   -6.6155 H   0  0  0  0  0  0  0  0  0  0  0  0
   -1.7807   10.7674   -4.4857 H   0  0  0  0  0  0  0  0  0  0  0  0
   -1.5960   12.4500   -3.9945 H   0  0  0  0  0  0  0  0  0  0  0  0
   -2.5272   14.3208   -5.7316 H   0  0  0  0  0  0  0  0  0  0  0  0
   -3.2469   13.7137   -7.2215 H   0  0  0  0  0  0  0  0  0  0  0  0
   -4.1964   10.8913   -4.3787 H   0  0  0  0  0  0  0  0  0  0  0  0
   -3.5328   11.4530   -2.8397 H   0  0  0  0  0  0  0  0  0  0  0  0
   -4.9855   14.3716   -5.5503 H   0  0  0  0  0  0  0  0  0  0  0  0
   -5.0838   12.6746   -6.0351 H   0  0  0  0  0  0  0  0  0  0  0  0
   -5.3977   15.8004    0.5164 H   0  0  0  0  0  0  0  0  0  0  0  0
   -5.1007   14.0690    0.7403 H   0  0  0  0  0  0  0  0  0  0  0  0
   -3.9653   15.9605   -1.3388 H   0  0  0  0  0  0  0  0  0  0  0  0
   -5.4671   13.8829   -1.7389 H   0  0  0  0  0  0  0  0  0  0  0  0
   -4.0482   12.9093   -1.3465 H   0  0  0  0  0  0  0  0  0  0  0  0
   -4.2462   14.9814   -3.5998 H   0  0  0  0  0  0  0  0  0  0  0  0
   -2.7977   14.0236   -3.2439 H   0  0  0  0  0  0  0  0  0  0  0  0
   -3.7946   15.4176    2.5252 H   0  0  0  0  0  0  0  0  0  0  0  0
  1  3  1  0  0  0  0
  1 14  2  0  0  0  0
  2 14  1  0  0  0  0
  2 15  2  0  0  0  0
  3  4  2  0  0  0  0
  3 11  1  0  0  0  0
  4 15  1  0  0  0  0
  4 16  1  0  0  0  0
  5  6  1  0  0  0  0
  5  7  1  0  0  0  0
  6  8  1  0  0  0  0
  7  9  1  0  0  0  0
  8 17  1  0  0  0  0
  9 17  1  0  0  0  0
 10 11  1  0  0  0  0
 10 16  1  0  0  0  0
 11 12  1  0  0  0  0
 12 13  1  0  0  0  0
 13 17  1  0  0  0  0
  1 18  1  0  0  0  0
  2 19  1  0  0  0  0
  5 20  1  0  0  0  0
  5 21  1  0  0  0  0
  6 22  1  0  0  0  0
  6 23  1  0  0  0  0
  7 24  1  0  0  0  0
  7 25  1  0  0  0  0
  8 26  1  0  0  0  0
  8 27  1  0  0  0  0
  9 28  1  0  0  0  0
  9 29  1  0  0  0  0
 10 30  1  0  0  0  0
 10 31  1  0  0  0  0
 11 32  1  0  0  0  0
 12 33  1  0  0  0  0
 12 34  1  0  0  0  0
 13 35  1  0  0  0  0
 13 36  1  0  0  0  0
 16 37  1  0  0  0  0
M  END
> <HYBRID receptor title>
5S18(A) > WOY(A-201)

> <HYBRID receptor filename>
5s18.oedu

> <HYBRID Chemgauss4 score>
-7.851992

> <HYBRID receptor title>
5S18(A) > WOY(A-201)

> <HYBRID receptor filename>
5s18.oedu

> <Dock Type>
Hybrid

$$$$
MOL0141_1
  -OEChem-06022418243D

 28 30  0     0  0  0  0  0  0999 V2000
   -7.5007   14.6275   -0.2118 C   0  0  0  0  0  0  0  0  0  0  0  0
   -7.2553   14.1790    1.0860 C   0  0  0  0  0  0  0  0  0  0  0  0
   -6.4541   15.1280   -0.9864 C   0  0  0  0  0  0  0  0  0  0  0  0
   -5.9633   14.2311    1.6092 C   0  0  0  0  0  0  0  0  0  0  0  0
   -5.1622   15.1801   -0.4631 C   0  0  0  0  0  0  0  0  0  0  0  0
   -0.0648   14.7005    1.0162 C   0  0  0  0  0  0  0  0  0  0  0  0
    0.0725   14.5348   -0.3366 C   0  0  0  0  0  0  0  0  0  0  0  0
   -4.9167   14.7317    0.8347 C   0  0  0  0  0  0  0  0  0  0  0  0
   -1.0804   14.4471   -1.1001 C   0  0  0  0  0  0  0  0  0  0  0  0
   -2.3366   14.6950    0.7644 C   0  0  0  0  0  0  0  0  0  0  0  0
    1.2827   14.3803   -1.1853 C   0  0  0  0  0  0  0  0  0  0  0  0
    0.6729   14.4549   -2.6019 C   0  0  0  0  0  0  0  0  0  0  0  0
   -1.2763   14.7893    1.6018 N   0  0  0  0  0  0  0  0  0  0  0  0
   -2.3142   14.5234   -0.5754 N   0  0  0  0  0  0  0  0  0  0  0  0
   -0.7604   14.2661   -2.4538 N   0  0  0  0  0  0  0  0  0  0  0  0
   -3.6136   14.7842    1.3620 N   0  0  0  0  0  0  0  0  0  0  0  0
   -8.5068   14.5871   -0.6191 H   0  0  0  0  0  0  0  0  0  0  0  0
   -8.0700   13.7895    1.6889 H   0  0  0  0  0  0  0  0  0  0  0  0
   -6.6455   15.4772   -1.9970 H   0  0  0  0  0  0  0  0  0  0  0  0
   -5.7826   13.8793    2.6216 H   0  0  0  0  0  0  0  0  0  0  0  0
   -4.3545   15.5720   -1.0761 H   0  0  0  0  0  0  0  0  0  0  0  0
    0.7889   14.7655    1.6797 H   0  0  0  0  0  0  0  0  0  0  0  0
    2.0061   15.1837   -1.0205 H   0  0  0  0  0  0  0  0  0  0  0  0
    1.7492   13.4057   -1.0101 H   0  0  0  0  0  0  0  0  0  0  0  0
    0.8655   15.4402   -3.0434 H   0  0  0  0  0  0  0  0  0  0  0  0
    1.1086   13.6994   -3.2635 H   0  0  0  0  0  0  0  0  0  0  0  0
   -1.4378   14.2422   -3.2001 H   0  0  0  0  0  0  0  0  0  0  0  0
   -3.5813   14.9102    2.3685 H   0  0  0  0  0  0  0  0  0  0  0  0
  1  2  1  0  0  0  0
  1  3  2  0  0  0  0
  2  4  2  0  0  0  0
  3  5  1  0  0  0  0
  4  8  1  0  0  0  0
  5  8  2  0  0  0  0
  6  7  1  0  0  0  0
  6 13  2  0  0  0  0
  7  9  2  0  0  0  0
  7 11  1  0  0  0  0
  8 16  1  0  0  0  0
  9 14  1  0  0  0  0
  9 15  1  0  0  0  0
 10 13  1  0  0  0  0
 10 14  2  0  0  0  0
 10 16  1  0  0  0  0
 11 12  1  0  0  0  0
 12 15  1  0  0  0  0
  1 17  1  0  0  0  0
  2 18  1  0  0  0  0
  3 19  1  0  0  0  0
  4 20  1  0  0  0  0
  5 21  1  0  0  0  0
  6 22  1  0  0  0  0
 11 23  1  0  0  0  0
 11 24  1  0  0  0  0
 12 25  1  0  0  0  0
 12 26  1  0  0  0  0
 15 27  1  0  0  0  0
 16 28  1  0  0  0  0
M  END
> <HYBRID receptor title>
5S18(A) > WOY(A-201)

> <HYBRID receptor filename>
5s18.oedu

> <HYBRID Chemgauss4 score>
-7.824344

> <HYBRID receptor title>
5S18(A) > WOY(A-201)

> <HYBRID receptor filename>
5s18.oedu

> <Dock Type>
Hybrid

$$$$
MOL0226_3
  -OEChem-06022418243D

 31 33  0     0  0  0  0  0  0999 V2000
   -1.5449    9.7050   -5.8119 C   0  0  0  0  0  0  0  0  0  0  0  0
   -0.5863   10.6635   -6.1401 C   0  0  0  0  0  0  0  0  0  0  0  0
   -2.6560   10.0628   -5.0483 C   0  0  0  0  0  0  0  0  0  0  0  0
   -0.7385   11.9798   -5.7045 C   0  0  0  0  0  0  0  0  0  0  0  0
   -2.8083   11.3791   -4.6127 C   0  0  0  0  0  0  0  0  0  0  0  0
   -2.7588   15.2637    1.2764 C   0  0  0  0  0  0  0  0  0  0  0  0
   -0.5234   14.8620    1.0145 C   0  0  0  0  0  0  0  0  0  0  0  0
   -2.9613   14.9724   -0.0484 C   0  0  0  0  0  0  0  0  0  0  0  0
   -1.8496   12.3377   -4.9408 C   0  0  0  0  0  0  0  0  0  0  0  0
   -1.8525   14.6233   -0.7941 C   0  0  0  0  0  0  0  0  0  0  0  0
   -1.3710   13.9828   -3.1264 C   0  0  0  0  0  0  0  0  0  0  0  0
   -4.2172   14.9688   -0.8450 C   0  0  0  0  0  0  0  0  0  0  0  0
   -3.7042   14.5536   -2.2312 C   0  0  0  0  0  0  0  0  0  0  0  0
   -2.0138   13.7524   -4.4720 C   0  0  0  0  0  0  0  0  0  0  0  0
   -1.5345   15.2160    1.8424 N   0  0  0  0  0  0  0  0  0  0  0  0
   -0.6068   14.5559   -0.2974 N   0  0  0  0  0  0  0  0  0  0  0  0
   -2.2445   14.3597   -2.1211 N   0  0  0  0  0  0  0  0  0  0  0  0
   -0.1560   13.8320   -2.9909 O   0  0  0  0  0  0  0  0  0  0  0  0
   -1.4269    8.6804   -6.1524 H   0  0  0  0  0  0  0  0  0  0  0  0
    0.2784   10.3854   -6.7356 H   0  0  0  0  0  0  0  0  0  0  0  0
   -3.4032    9.3170   -4.7935 H   0  0  0  0  0  0  0  0  0  0  0  0
    0.0136   12.7199   -5.9648 H   0  0  0  0  0  0  0  0  0  0  0  0
   -3.6771   11.6487   -4.0180 H   0  0  0  0  0  0  0  0  0  0  0  0
   -3.5721   15.5456    1.9345 H   0  0  0  0  0  0  0  0  0  0  0  0
    0.4648   14.8191    1.4566 H   0  0  0  0  0  0  0  0  0  0  0  0
   -4.9307   14.2384   -0.4520 H   0  0  0  0  0  0  0  0  0  0  0  0
   -4.6693   15.9645   -0.8720 H   0  0  0  0  0  0  0  0  0  0  0  0
   -4.1648   13.6183   -2.5680 H   0  0  0  0  0  0  0  0  0  0  0  0
   -3.9071   15.3238   -2.9835 H   0  0  0  0  0  0  0  0  0  0  0  0
   -1.5692   14.4421   -5.1911 H   0  0  0  0  0  0  0  0  0  0  0  0
   -3.0695   14.0165   -4.3980 H   0  0  0  0  0  0  0  0  0  0  0  0
  1  2  1  0  0  0  0
  1  3  2  0  0  0  0
  2  4  2  0  0  0  0
  3  5  1  0  0  0  0
  4  9  1  0  0  0  0
  5  9  2  0  0  0  0
  6  8  1  0  0  0  0
  6 15  2  0  0  0  0
  7 15  1  0  0  0  0
  7 16  2  0  0  0  0
  8 10  2  0  0  0  0
  8 12  1  0  0  0  0
  9 14  1  0  0  0  0
 10 16  1  0  0  0  0
 10 17  1  0  0  0  0
 11 14  1  0  0  0  0
 11 17  1  0  0  0  0
 11 18  2  0  0  0  0
 12 13  1  0  0  0  0
 13 17  1  0  0  0  0
  1 19  1  0  0  0  0
  2 20  1  0  0  0  0
  3 21  1  0  0  0  0
  4 22  1  0  0  0  0
  5 23  1  0  0  0  0
  6 24  1  0  0  0  0
  7 25  1  0  0  0  0
 12 26  1  0  0  0  0
 12 27  1  0  0  0  0
 13 28  1  0  0  0  0
 13 29  1  0  0  0  0
 14 30  1  0  0  0  0
 14 31  1  0  0  0  0
M  END
> <HYBRID receptor title>
5S18(A) > WOY(A-201)

> <HYBRID receptor filename>
5s18.oedu

> <HYBRID Chemgauss4 score>
-7.801473

> <HYBRID receptor title>
5S18(A) > WOY(A-201)

> <HYBRID receptor filename>
5s18.oedu

> <Dock Type>
Hybrid

$$$$
MOL0205_1
  -OEChem-06022418243D

 25 26  0     1  0  0  0  0  0999 V2000
   -1.1656   14.6669   -0.7867 C   0  0  0  0  0  0  0  0  0  0  0  0
    0.0829   14.8336    1.1200 C   0  0  0  0  0  0  0  0  0  0  0  0
   -2.3001   14.9033   -0.0536 C   0  0  0  0  0  0  0  0  0  0  0  0
   -2.1543   15.1109    1.3097 C   0  0  0  0  0  0  0  0  0  0  0  0
   -4.4301   15.0523    0.9279 C   0  0  0  0  0  0  0  0  0  0  0  0
   -3.7320   15.0375   -0.4574 C   0  0  2  0  0  0  0  0  0  0  0  0
   -6.2156   12.9987   -2.6149 C   0  0  0  0  0  0  0  0  0  0  0  0
   -4.2384   13.9194   -1.3547 C   0  0  0  0  0  0  0  0  0  0  0  0
   -5.7161   14.1013   -1.6951 C   0  0  0  0  0  0  0  0  0  0  0  0
    0.0559   14.6209   -0.2166 N   0  0  0  0  0  0  0  0  0  0  0  0
   -0.9652   15.0834    1.9341 N   0  0  0  0  0  0  0  0  0  0  0  0
   -3.3998   15.3476    1.9098 N   0  0  0  0  0  0  0  0  0  0  0  0
   -1.1915   14.5112   -1.8584 H   0  0  0  0  0  0  0  0  0  0  0  0
    1.0587   14.8004    1.5900 H   0  0  0  0  0  0  0  0  0  0  0  0
   -5.2274   15.8024    0.9585 H   0  0  0  0  0  0  0  0  0  0  0  0
   -4.8775   14.0783    1.1610 H   0  0  0  0  0  0  0  0  0  0  0  0
   -3.8701   16.0089   -0.9480 H   0  0  0  0  0  0  0  0  0  0  0  0
   -5.6386   12.9723   -3.5449 H   0  0  0  0  0  0  0  0  0  0  0  0
   -7.2665   13.1659   -2.8714 H   0  0  0  0  0  0  0  0  0  0  0  0
   -6.1354   12.0191   -2.1327 H   0  0  0  0  0  0  0  0  0  0  0  0
   -3.6435   13.8997   -2.2752 H   0  0  0  0  0  0  0  0  0  0  0  0
   -4.0877   12.9577   -0.8506 H   0  0  0  0  0  0  0  0  0  0  0  0
   -6.3133   14.1006   -0.7756 H   0  0  0  0  0  0  0  0  0  0  0  0
   -5.8699   15.0721   -2.1807 H   0  0  0  0  0  0  0  0  0  0  0  0
   -3.5397   15.4522    2.9029 H   0  0  0  0  0  0  0  0  0  0  0  0
  1  3  1  0  0  0  0
  1 10  2  0  0  0  0
  2 10  1  0  0  0  0
  2 11  2  0  0  0  0
  3  4  2  0  0  0  0
  3  6  1  0  0  0  0
  4 11  1  0  0  0  0
  4 12  1  0  0  0  0
  5  6  1  0  0  0  0
  5 12  1  0  0  0  0
  6  8  1  0  0  0  0
  7  9  1  0  0  0  0
  8  9  1  0  0  0  0
  1 13  1  0  0  0  0
  2 14  1  0  0  0  0
  5 15  1  0  0  0  0
  5 16  1  0  0  0  0
  6 17  1  0  0  0  0
  7 18  1  0  0  0  0
  7 19  1  0  0  0  0
  7 20  1  0  0  0  0
  8 21  1  0  0  0  0
  8 22  1  0  0  0  0
  9 23  1  0  0  0  0
  9 24  1  0  0  0  0
 12 25  1  0  0  0  0
M  END
> <HYBRID receptor title>
5S18(A) > WOY(A-201)

> <HYBRID receptor filename>
5s18.oedu

> <HYBRID Chemgauss4 score>
-7.787525

> <HYBRID receptor title>
5S18(A) > WOY(A-201)

> <HYBRID receptor filename>
5s18.oedu

> <Dock Type>
Hybrid

$$$$
MOL0138_1
  -OEChem-06022418243D

 23 25  0     1  0  0  0  0  0999 V2000
   -1.4812   14.8285   -0.8574 C   0  0  0  0  0  0  0  0  0  0  0  0
   -0.0778   14.7182    0.9426 C   0  0  0  0  0  0  0  0  0  0  0  0
   -2.5427   15.0044   -0.0074 C   0  0  0  0  0  0  0  0  0  0  0  0
   -2.2797   15.0354    1.3538 C   0  0  0  0  0  0  0  0  0  0  0  0
   -5.8039   14.5922   -2.0189 C   0  0  0  0  0  0  0  0  0  0  0  0
   -4.4710   14.4607   -2.7014 C   0  0  0  0  0  0  0  0  0  0  0  0
   -4.5793   15.0925    1.1619 C   0  0  0  0  0  0  0  0  0  0  0  0
   -3.9961   15.2297   -0.2690 C   0  0  2  0  0  0  0  0  0  0  0  0
   -4.5834   14.2369   -1.2224 C   0  0  0  0  0  0  0  0  0  0  0  0
   -0.2207   14.6754   -0.4028 N   0  0  0  0  0  0  0  0  0  0  0  0
   -1.0463   14.8950    1.8670 N   0  0  0  0  0  0  0  0  0  0  0  0
   -3.4624   15.2318    2.0817 N   0  0  0  0  0  0  0  0  0  0  0  0
   -1.5987   14.8093   -1.9341 H   0  0  0  0  0  0  0  0  0  0  0  0
    0.9305   14.5983    1.3209 H   0  0  0  0  0  0  0  0  0  0  0  0
   -6.2224   15.5860   -1.9187 H   0  0  0  0  0  0  0  0  0  0  0  0
   -6.5360   13.8121   -2.1881 H   0  0  0  0  0  0  0  0  0  0  0  0
   -4.3090   13.5922   -3.3281 H   0  0  0  0  0  0  0  0  0  0  0  0
   -3.9968   15.3664   -3.0586 H   0  0  0  0  0  0  0  0  0  0  0  0
   -5.3373   15.8602    1.3512 H   0  0  0  0  0  0  0  0  0  0  0  0
   -5.0528   14.1148    1.3152 H   0  0  0  0  0  0  0  0  0  0  0  0
   -4.1435   16.2523   -0.6367 H   0  0  0  0  0  0  0  0  0  0  0  0
   -4.4940   13.2257   -0.8518 H   0  0  0  0  0  0  0  0  0  0  0  0
   -3.5180   15.2154    3.0882 H   0  0  0  0  0  0  0  0  0  0  0  0
  1  3  1  0  0  0  0
  1 10  2  0  0  0  0
  2 10  1  0  0  0  0
  2 11  2  0  0  0  0
  3  4  2  0  0  0  0
  3  8  1  0  0  0  0
  4 11  1  0  0  0  0
  4 12  1  0  0  0  0
  5  6  1  0  0  0  0
  5  9  1  0  0  0  0
  6  9  1  0  0  0  0
  7  8  1  0  0  0  0
  7 12  1  0  0  0  0
  8  9  1  0  0  0  0
  1 13  1  0  0  0  0
  2 14  1  0  0  0  0
  5 15  1  0  0  0  0
  5 16  1  0  0  0  0
  6 17  1  0  0  0  0
  6 18  1  0  0  0  0
  7 19  1  0  0  0  0
  7 20  1  0  0  0  0
  8 21  1  0  0  0  0
  9 22  1  0  0  0  0
 12 23  1  0  0  0  0
M  END
> <HYBRID receptor title>
5S18(A) > WOY(A-201)

> <HYBRID receptor filename>
5s18.oedu

> <HYBRID Chemgauss4 score>
-7.719351

> <HYBRID receptor title>
5S18(A) > WOY(A-201)

> <HYBRID receptor filename>
5s18.oedu

> <Dock Type>
Hybrid

$$$$
MOL0164_3
  -OEChem-06022418243D

 32 34  0     1  0  0  0  0  0999 V2000
   -0.5499   10.9533   -6.5218 C   0  0  0  0  0  0  0  0  0  0  0  0
   -1.9406   10.9270   -6.4186 C   0  0  0  0  0  0  0  0  0  0  0  0
    0.2116   11.5708   -5.5295 C   0  0  0  0  0  0  0  0  0  0  0  0
   -2.5700   11.5183   -5.3231 C   0  0  0  0  0  0  0  0  0  0  0  0
   -0.4178   12.1621   -4.4341 C   0  0  0  0  0  0  0  0  0  0  0  0
   -3.2478   15.3306    1.2997 C   0  0  0  0  0  0  0  0  0  0  0  0
   -1.1301   14.9324    0.5414 C   0  0  0  0  0  0  0  0  0  0  0  0
   -3.7170   15.1985    0.0192 C   0  0  0  0  0  0  0  0  0  0  0  0
   -1.8086   12.1359   -4.3309 C   0  0  0  0  0  0  0  0  0  0  0  0
   -2.8012   14.9357   -0.9903 C   0  0  0  0  0  0  0  0  0  0  0  0
   -5.0914   15.3233   -0.5328 C   0  0  0  0  0  0  0  0  0  0  0  0
   -4.8860   14.7522   -1.9507 C   0  0  0  0  0  0  0  0  0  0  0  0
   -2.4888   12.7759   -3.1457 C   0  0  0  0  0  0  0  0  0  0  0  0
   -2.8321   14.2453   -3.3780 C   0  0  0  0  0  0  0  0  0  0  0  0
   -1.9390   15.1968    1.5942 N   0  0  0  0  0  0  0  0  0  0  0  0
   -1.4850   14.7927   -0.7547 N   0  0  0  0  0  0  0  0  0  0  0  0
   -3.4568   14.8543   -2.2331 N   0  0  2  0  0  0  0  0  0  0  0  0
   -0.0599   10.4917   -7.3741 H   0  0  0  0  0  0  0  0  0  0  0  0
   -2.5336   10.4453   -7.1905 H   0  0  0  0  0  0  0  0  0  0  0  0
    1.2945   11.5905   -5.6089 H   0  0  0  0  0  0  0  0  0  0  0  0
   -3.6542   11.4932   -5.2512 H   0  0  0  0  0  0  0  0  0  0  0  0
    0.1836   12.6410   -3.6659 H   0  0  0  0  0  0  0  0  0  0  0  0
   -3.9017   15.5486    2.1351 H   0  0  0  0  0  0  0  0  0  0  0  0
   -0.0755   14.8223    0.7644 H   0  0  0  0  0  0  0  0  0  0  0  0
   -5.8215   14.7367    0.0318 H   0  0  0  0  0  0  0  0  0  0  0  0
   -5.3931   16.3749   -0.5695 H   0  0  0  0  0  0  0  0  0  0  0  0
   -5.1927   13.6982   -1.9748 H   0  0  0  0  0  0  0  0  0  0  0  0
   -5.4852   15.2943   -2.6901 H   0  0  0  0  0  0  0  0  0  0  0  0
   -1.8247   12.6919   -2.2761 H   0  0  0  0  0  0  0  0  0  0  0  0
   -3.3949   12.2124   -2.8890 H   0  0  0  0  0  0  0  0  0  0  0  0
   -1.9190   14.8143   -3.5793 H   0  0  0  0  0  0  0  0  0  0  0  0
   -3.5082   14.3724   -4.2299 H   0  0  0  0  0  0  0  0  0  0  0  0
  1  2  1  0  0  0  0
  1  3  2  0  0  0  0
  2  4  2  0  0  0  0
  3  5  1  0  0  0  0
  4  9  1  0  0  0  0
  5  9  2  0  0  0  0
  6  8  1  0  0  0  0
  6 15  2  0  0  0  0
  7 15  1  0  0  0  0
  7 16  2  0  0  0  0
  8 10  2  0  0  0  0
  8 11  1  0  0  0  0
  9 13  1  0  0  0  0
 10 16  1  0  0  0  0
 10 17  1  0  0  0  0
 11 12  1  0  0  0  0
 12 17  1  0  0  0  0
 13 14  1  0  0  0  0
 14 17  1  0  0  0  0
  1 18  1  0  0  0  0
  2 19  1  0  0  0  0
  3 20  1  0  0  0  0
  4 21  1  0  0  0  0
  5 22  1  0  0  0  0
  6 23  1  0  0  0  0
  7 24  1  0  0  0  0
 11 25  1  0  0  0  0
 11 26  1  0  0  0  0
 12 27  1  0  0  0  0
 12 28  1  0  0  0  0
 13 29  1  0  0  0  0
 13 30  1  0  0  0  0
 14 31  1  0  0  0  0
 14 32  1  0  0  0  0
M  END
> <HYBRID receptor title>
5S18(A) > WOY(A-201)

> <HYBRID receptor filename>
5s18.oedu

> <HYBRID Chemgauss4 score>
-7.716587

> <HYBRID receptor title>
5S18(A) > WOY(A-201)

> <HYBRID receptor filename>
5s18.oedu

> <Dock Type>
Hybrid

$$$$
MOL0060_1
  -OEChem-06022418243D

 19 20  0     1  0  0  0  0  0999 V2000
   -1.2375   14.5971   -1.0604 C   0  0  0  0  0  0  0  0  0  0  0  0
   -0.0524   14.8288    0.8790 C   0  0  0  0  0  0  0  0  0  0  0  0
   -2.3937   14.8530   -0.3705 C   0  0  0  0  0  0  0  0  0  0  0  0
   -2.2965   15.0995    0.9876 C   0  0  0  0  0  0  0  0  0  0  0  0
   -3.8048   14.9399   -0.8352 C   0  0  0  0  0  0  0  0  0  0  0  0
   -4.5670   15.1830    0.4958 C   0  0  1  0  0  0  0  0  0  0  0  0
   -5.4870   14.0199    0.8498 C   0  0  0  0  0  0  0  0  0  0  0  0
   -0.0347   14.5765   -0.4510 N   0  0  0  0  0  0  0  0  0  0  0  0
   -1.1284   15.0950    1.6509 N   0  0  0  0  0  0  0  0  0  0  0  0
   -3.5597   15.3437    1.5375 N   0  0  0  0  0  0  0  0  0  0  0  0
   -1.2324   14.4009   -2.1257 H   0  0  0  0  0  0  0  0  0  0  0  0
    0.9076   14.8159    1.3814 H   0  0  0  0  0  0  0  0  0  0  0  0
   -3.9250   15.7936   -1.5101 H   0  0  0  0  0  0  0  0  0  0  0  0
   -4.1147   14.0184   -1.3372 H   0  0  0  0  0  0  0  0  0  0  0  0
   -5.1656   16.0982    0.4171 H   0  0  0  0  0  0  0  0  0  0  0  0
   -4.9086   13.1001    0.9324 H   0  0  0  0  0  0  0  0  0  0  0  0
   -6.2430   13.8949    0.0751 H   0  0  0  0  0  0  0  0  0  0  0  0
   -5.9824   14.2139    1.8008 H   0  0  0  0  0  0  0  0  0  0  0  0
   -3.7371   15.5263    2.5128 H   0  0  0  0  0  0  0  0  0  0  0  0
  1  3  1  0  0  0  0
  1  8  2  0  0  0  0
  2  8  1  0  0  0  0
  2  9  2  0  0  0  0
  3  4  2  0  0  0  0
  3  5  1  0  0  0  0
  4  9  1  0  0  0  0
  4 10  1  0  0  0  0
  5  6  1  0  0  0  0
  6  7  1  0  0  0  0
  6 10  1  0  0  0  0
  1 11  1  0  0  0  0
  2 12  1  0  0  0  0
  5 13  1  0  0  0  0
  5 14  1  0  0  0  0
  6 15  1  0  0  0  0
  7 16  1  0  0  0  0
  7 17  1  0  0  0  0
  7 18  1  0  0  0  0
 10 19  1  0  0  0  0
M  END
> <HYBRID receptor title>
5S18(A) > WOY(A-201)

> <HYBRID receptor filename>
5s18.oedu

> <HYBRID Chemgauss4 score>
-7.700382

> <HYBRID receptor title>
5S18(A) > WOY(A-201)

> <HYBRID receptor filename>
5s18.oedu

> <Dock Type>
Hybrid

$$$$
MOL0036_1
  -OEChem-06022418243D

 13 14  0     0  0  0  0  0  0999 V2000
   -0.7958   14.6034   -0.7952 C   0  0  0  0  0  0  0  0  0  0  0  0
    0.2003   15.0412    1.2500 C   0  0  0  0  0  0  0  0  0  0  0  0
   -4.0601   14.5911    0.4878 C   0  0  0  0  0  0  0  0  0  0  0  0
   -2.0245   14.6288   -0.1429 C   0  0  0  0  0  0  0  0  0  0  0  0
   -2.0047   14.8728    1.2211 C   0  0  0  0  0  0  0  0  0  0  0  0
    0.3347   14.8145   -0.0790 N   0  0  0  0  0  0  0  0  0  0  0  0
   -0.9280   15.0894    1.9913 N   0  0  0  0  0  0  0  0  0  0  0  0
   -3.3114   14.4553   -0.5867 N   0  0  0  0  0  0  0  0  0  0  0  0
   -3.3142   14.8455    1.6081 N   0  0  0  0  0  0  0  0  0  0  0  0
   -0.6785   14.4234   -1.8557 H   0  0  0  0  0  0  0  0  0  0  0  0
    1.1251   15.2080    1.7921 H   0  0  0  0  0  0  0  0  0  0  0  0
   -5.1379   14.5177    0.5246 H   0  0  0  0  0  0  0  0  0  0  0  0
   -3.6670   14.9870    2.5451 H   0  0  0  0  0  0  0  0  0  0  0  0
  1  4  1  0  0  0  0
  1  6  2  0  0  0  0
  2  6  1  0  0  0  0
  2  7  2  0  0  0  0
  3  8  2  0  0  0  0
  3  9  1  0  0  0  0
  4  5  2  0  0  0  0
  4  8  1  0  0  0  0
  5  7  1  0  0  0  0
  5  9  1  0  0  0  0
  1 10  1  0  0  0  0
  2 11  1  0  0  0  0
  3 12  1  0  0  0  0
  9 13  1  0  0  0  0
M  END
> <HYBRID receptor title>
5S18(A) > WOY(A-201)

> <HYBRID receptor filename>
5s18.oedu

> <HYBRID Chemgauss4 score>
-7.628329

> <HYBRID receptor title>
5S18(A) > WOY(A-201)

> <HYBRID receptor filename>
5s18.oedu

> <Dock Type>
Hybrid

$$$$
MOL0100_14
  -OEChem-06022418243D

 26 27  0     1  0  0  0  0  0999 V2000
   -0.9977   14.8974   -0.6973 C   0  0  0  0  0  0  0  0  0  0  0  0
    0.1134   14.8968    1.2995 C   0  0  0  0  0  0  0  0  0  0  0  0
   -2.1781   15.1019   -0.0300 C   0  0  0  0  0  0  0  0  0  0  0  0
   -2.1272   15.2051    1.3519 C   0  0  0  0  0  0  0  0  0  0  0  0
   -4.3704   15.2219    0.8078 C   0  0  0  0  0  0  0  0  0  0  0  0
   -3.5752   15.2944   -0.5223 C   0  0  2  0  0  0  0  0  0  0  0  0
   -4.0328   14.2551   -1.5333 C   0  0  0  0  0  0  0  0  0  0  0  0
   -5.2470   14.7383   -2.3213 C   0  0  0  0  0  0  0  0  0  0  0  0
   -6.4421   14.9909   -1.4132 C   0  0  0  0  0  0  0  0  0  0  0  0
    0.1789   14.7842   -0.0479 N   0  0  0  0  0  0  0  0  0  0  0  0
   -0.9865   15.1072    2.0544 N   0  0  0  0  0  0  0  0  0  0  0  0
   -3.4087   15.4223    1.8791 N   0  0  0  0  0  0  0  0  0  0  0  0
   -6.7714   13.7830   -0.7411 O   0  0  0  0  0  0  0  0  0  0  0  0
   -0.9492   14.8219   -1.7768 H   0  0  0  0  0  0  0  0  0  0  0  0
    1.0523   14.8089    1.8331 H   0  0  0  0  0  0  0  0  0  0  0  0
   -5.1558   15.9844    0.8384 H   0  0  0  0  0  0  0  0  0  0  0  0
   -4.8488   14.2431    0.9353 H   0  0  0  0  0  0  0  0  0  0  0  0
   -3.6633   16.3016   -0.9479 H   0  0  0  0  0  0  0  0  0  0  0  0
   -3.2074   14.0337   -2.2198 H   0  0  0  0  0  0  0  0  0  0  0  0
   -4.2760   13.3247   -1.0072 H   0  0  0  0  0  0  0  0  0  0  0  0
   -5.0043   15.6589   -2.8667 H   0  0  0  0  0  0  0  0  0  0  0  0
   -5.5215   14.0010   -3.0861 H   0  0  0  0  0  0  0  0  0  0  0  0
   -6.2090   15.7539   -0.6637 H   0  0  0  0  0  0  0  0  0  0  0  0
   -7.3122   15.3148   -1.9932 H   0  0  0  0  0  0  0  0  0  0  0  0
   -3.6177   15.4562    2.8649 H   0  0  0  0  0  0  0  0  0  0  0  0
   -7.5341   13.9774   -0.1725 H   0  0  0  0  0  0  0  0  0  0  0  0
  1  3  1  0  0  0  0
  1 10  2  0  0  0  0
  2 10  1  0  0  0  0
  2 11  2  0  0  0  0
  3  4  2  0  0  0  0
  3  6  1  0  0  0  0
  4 11  1  0  0  0  0
  4 12  1  0  0  0  0
  5  6  1  0  0  0  0
  5 12  1  0  0  0  0
  6  7  1  0  0  0  0
  7  8  1  0  0  0  0
  8  9  1  0  0  0  0
  9 13  1  0  0  0  0
  1 14  1  0  0  0  0
  2 15  1  0  0  0  0
  5 16  1  0  0  0  0
  5 17  1  0  0  0  0
  6 18  1  0  0  0  0
  7 19  1  0  0  0  0
  7 20  1  0  0  0  0
  8 21  1  0  0  0  0
  8 22  1  0  0  0  0
  9 23  1  0  0  0  0
  9 24  1  0  0  0  0
 12 25  1  0  0  0  0
 13 26  1  0  0  0  0
M  END
> <HYBRID receptor title>
5S18(A) > WOY(A-201)

> <HYBRID receptor filename>
5s18.oedu

> <HYBRID Chemgauss4 score>
-7.607111

> <HYBRID receptor title>
5S18(A) > WOY(A-201)

> <HYBRID receptor filename>
5s18.oedu

> <Dock Type>
Hybrid

$$$$
MOL0176_6
  -OEChem-06022418243D

 29 31  0     1  0  0  0  0  0999 V2000
    1.8855   15.8397   -4.2700 C   0  0  0  0  0  0  0  0  0  0  0  0
    2.0091   14.7833   -3.3676 C   0  0  0  0  0  0  0  0  0  0  0  0
    0.6287   16.1955   -4.7593 C   0  0  0  0  0  0  0  0  0  0  0  0
    0.8759   14.0827   -2.9545 C   0  0  0  0  0  0  0  0  0  0  0  0
   -0.5045   15.4949   -4.3463 C   0  0  0  0  0  0  0  0  0  0  0  0
   -3.1095   15.3018    1.5180 C   0  0  0  0  0  0  0  0  0  0  0  0
   -0.9190   14.6824    1.2350 C   0  0  0  0  0  0  0  0  0  0  0  0
   -3.3187   15.1549    0.1735 C   0  0  0  0  0  0  0  0  0  0  0  0
   -0.3810   14.4385   -3.4439 C   0  0  0  0  0  0  0  0  0  0  0  0
   -2.2381   14.7440   -0.5747 C   0  0  0  0  0  0  0  0  0  0  0  0
   -4.5112   15.4224   -0.6707 C   0  0  0  0  0  0  0  0  0  0  0  0
   -4.0771   14.8387   -2.0321 C   0  0  0  0  0  0  0  0  0  0  0  0
   -1.9066   15.0596    2.0854 N   0  0  0  0  0  0  0  0  0  0  0  0
   -1.0057   14.5182   -0.1013 N   0  0  0  0  0  0  0  0  0  0  0  0
   -2.5796   14.7190   -1.9636 N   0  0  2  0  0  0  0  0  0  0  0  0
   -2.6185   13.2859   -4.1059 O   0  0  0  0  0  0  0  0  0  0  0  0
   -1.3691   12.4483   -2.0847 O   0  0  0  0  0  0  0  0  0  0  0  0
   -1.8171   13.5478   -2.9225 S   0  0  0  0  0  0  0  0  0  0  0  0
    2.7676   16.3852   -4.5925 H   0  0  0  0  0  0  0  0  0  0  0  0
    2.9876   14.5052   -2.9872 H   0  0  0  0  0  0  0  0  0  0  0  0
    0.5329   17.0176   -5.4624 H   0  0  0  0  0  0  0  0  0  0  0  0
    0.9835   13.2607   -2.2518 H   0  0  0  0  0  0  0  0  0  0  0  0
   -1.4785   15.7798   -4.7348 H   0  0  0  0  0  0  0  0  0  0  0  0
   -3.8976   15.6080    2.1952 H   0  0  0  0  0  0  0  0  0  0  0  0
    0.0482   14.4871    1.6828 H   0  0  0  0  0  0  0  0  0  0  0  0
   -5.3802   14.8835   -0.2787 H   0  0  0  0  0  0  0  0  0  0  0  0
   -4.7434   16.4882   -0.7505 H   0  0  0  0  0  0  0  0  0  0  0  0
   -4.5363   13.8634   -2.2176 H   0  0  0  0  0  0  0  0  0  0  0  0
   -4.3570   15.5262   -2.8397 H   0  0  0  0  0  0  0  0  0  0  0  0
  1  2  1  0  0  0  0
  1  3  2  0  0  0  0
  2  4  2  0  0  0  0
  3  5  1  0  0  0  0
  4  9  1  0  0  0  0
  5  9  2  0  0  0  0
  6  8  1  0  0  0  0
  6 13  2  0  0  0  0
  7 13  1  0  0  0  0
  7 14  2  0  0  0  0
  8 10  2  0  0  0  0
  8 11  1  0  0  0  0
  9 18  1  0  0  0  0
 10 14  1  0  0  0  0
 10 15  1  0  0  0  0
 11 12  1  0  0  0  0
 12 15  1  0  0  0  0
 15 18  1  0  0  0  0
 16 18  2  0  0  0  0
 17 18  2  0  0  0  0
  1 19  1  0  0  0  0
  2 20  1  0  0  0  0
  3 21  1  0  0  0  0
  4 22  1  0  0  0  0
  5 23  1  0  0  0  0
  6 24  1  0  0  0  0
  7 25  1  0  0  0  0
 11 26  1  0  0  0  0
 11 27  1  0  0  0  0
 12 28  1  0  0  0  0
 12 29  1  0  0  0  0
M  END
> <HYBRID receptor title>
5S18(A) > WOY(A-201)

> <HYBRID receptor filename>
5s18.oedu

> <HYBRID Chemgauss4 score>
-7.603011

> <HYBRID receptor title>
5S18(A) > WOY(A-201)

> <HYBRID receptor filename>
5s18.oedu

> <Dock Type>
Hybrid

$$$$
MOL0052_4
  -OEChem-06022418243D

 29 31  0     1  0  0  0  0  0999 V2000
   -3.1886   15.1236    1.7129 C   0  0  0  0  0  0  0  0  0  0  0  0
   -1.0373   14.8634    0.9898 C   0  0  0  0  0  0  0  0  0  0  0  0
   -3.6164   15.0862    0.4118 C   0  0  0  0  0  0  0  0  0  0  0  0
   -2.6637   14.9419   -0.5874 C   0  0  0  0  0  0  0  0  0  0  0  0
   -4.9784   15.2115   -0.1701 C   0  0  0  0  0  0  0  0  0  0  0  0
   -0.5516   14.2601   -4.2515 C   0  0  0  0  0  0  0  0  0  0  0  0
   -1.0987   12.8552   -3.9840 C   0  0  0  0  0  0  0  0  0  0  0  0
   -1.2937   15.1905   -3.2957 C   0  0  0  0  0  0  0  0  0  0  0  0
   -2.1432   13.0122   -2.8819 C   0  0  0  0  0  0  0  0  0  0  0  0
   -4.7126   14.7715   -1.6243 C   0  0  0  0  0  0  0  0  0  0  0  0
   -2.6024   14.4582   -3.0248 C   0  0  0  0  0  0  0  0  0  0  0  0
   -1.8846   15.0092    2.0356 N   0  0  0  0  0  0  0  0  0  0  0  0
   -1.3503   14.8236   -0.3238 N   0  0  0  0  0  0  0  0  0  0  0  0
   -3.2807   14.9454   -1.8523 N   0  0  2  0  0  0  0  0  0  0  0  0
   -3.8732   15.2471    2.5430 H   0  0  0  0  0  0  0  0  0  0  0  0
    0.0139   14.7701    1.2354 H   0  0  0  0  0  0  0  0  0  0  0  0
   -5.7024   14.5544    0.3197 H   0  0  0  0  0  0  0  0  0  0  0  0
   -5.3168   16.2517   -0.1269 H   0  0  0  0  0  0  0  0  0  0  0  0
    0.5311   14.3124   -4.0989 H   0  0  0  0  0  0  0  0  0  0  0  0
   -0.7512   14.5433   -5.2914 H   0  0  0  0  0  0  0  0  0  0  0  0
   -1.5619   12.4586   -4.8948 H   0  0  0  0  0  0  0  0  0  0  0  0
   -0.3076   12.1592   -3.6877 H   0  0  0  0  0  0  0  0  0  0  0  0
   -0.7067   15.3071   -2.3757 H   0  0  0  0  0  0  0  0  0  0  0  0
   -1.4494   16.1843   -3.7267 H   0  0  0  0  0  0  0  0  0  0  0  0
   -2.9647   12.2972   -2.9892 H   0  0  0  0  0  0  0  0  0  0  0  0
   -1.6704   12.8433   -1.9060 H   0  0  0  0  0  0  0  0  0  0  0  0
   -4.9802   13.7137   -1.7472 H   0  0  0  0  0  0  0  0  0  0  0  0
   -5.3100   15.3545   -2.3333 H   0  0  0  0  0  0  0  0  0  0  0  0
   -3.2734   14.5565   -3.8995 H   0  0  0  0  0  0  0  0  0  0  0  0
  1  3  1  0  0  0  0
  1 12  2  0  0  0  0
  2 12  1  0  0  0  0
  2 13  2  0  0  0  0
  3  4  2  0  0  0  0
  3  5  1  0  0  0  0
  4 13  1  0  0  0  0
  4 14  1  0  0  0  0
  5 10  1  0  0  0  0
  6  7  1  0  0  0  0
  6  8  1  0  0  0  0
  7  9  1  0  0  0  0
  8 11  1  0  0  0  0
  9 11  1  0  0  0  0
 10 14  1  0  0  0  0
 11 14  1  0  0  0  0
  1 15  1  0  0  0  0
  2 16  1  0  0  0  0
  5 17  1  0  0  0  0
  5 18  1  0  0  0  0
  6 19  1  0  0  0  0
  6 20  1  0  0  0  0
  7 21  1  0  0  0  0
  7 22  1  0  0  0  0
  8 23  1  0  0  0  0
  8 24  1  0  0  0  0
  9 25  1  0  0  0  0
  9 26  1  0  0  0  0
 10 27  1  0  0  0  0
 10 28  1  0  0  0  0
 11 29  1  0  0  0  0
M  END
> <HYBRID receptor title>
5S18(A) > WOY(A-201)

> <HYBRID receptor filename>
5s18.oedu

> <HYBRID Chemgauss4 score>
-7.599448

> <HYBRID receptor title>
5S18(A) > WOY(A-201)

> <HYBRID receptor filename>
5s18.oedu

> <Dock Type>
Hybrid

$$$$
MOL0159_4
  -OEChem-06022418243D

 31 33  0     1  0  0  0  0  0999 V2000
   -1.0830   14.6932   -1.0106 C   0  0  0  0  0  0  0  0  0  0  0  0
   -0.0274   14.9480    1.0000 C   0  0  0  0  0  0  0  0  0  0  0  0
   -2.2913   14.8782   -0.3893 C   0  0  0  0  0  0  0  0  0  0  0  0
   -2.2838   15.1095    0.9779 C   0  0  0  0  0  0  0  0  0  0  0  0
   -5.4778   12.5356   -4.2655 C   0  0  0  0  0  0  0  0  0  0  0  0
   -5.1878   13.9671   -4.6937 C   0  0  0  0  0  0  0  0  0  0  0  0
   -5.9391   12.6353   -2.8187 C   0  0  0  0  0  0  0  0  0  0  0  0
   -5.4939   14.8213   -3.4719 C   0  0  0  0  0  0  0  0  0  0  0  0
   -4.5083   14.9271    0.3888 C   0  0  0  0  0  0  0  0  0  0  0  0
   -3.6845   14.9315   -0.9257 C   0  0  2  0  0  0  0  0  0  0  0  0
   -4.0471   13.7766   -1.8457 C   0  0  0  0  0  0  0  0  0  0  0  0
    0.0809   14.7182   -0.3296 N   0  0  0  0  0  0  0  0  0  0  0  0
   -1.1582   15.1521    1.7096 N   0  0  0  0  0  0  0  0  0  0  0  0
   -3.5902   15.2876    1.4565 N   0  0  0  0  0  0  0  0  0  0  0  0
   -5.4382   13.9204   -2.3130 N   0  0  0  0  0  0  0  0  0  0  0  0
   -1.0012   14.5235   -2.0773 H   0  0  0  0  0  0  0  0  0  0  0  0
    0.9008   14.9717    1.5585 H   0  0  0  0  0  0  0  0  0  0  0  0
   -6.2411   12.0680   -4.8974 H   0  0  0  0  0  0  0  0  0  0  0  0
   -4.5649   11.9314   -4.3421 H   0  0  0  0  0  0  0  0  0  0  0  0
   -4.1334   14.0637   -4.9811 H   0  0  0  0  0  0  0  0  0  0  0  0
   -5.7971   14.2664   -5.5540 H   0  0  0  0  0  0  0  0  0  0  0  0
   -7.0457   12.5993   -2.7812 H   0  0  0  0  0  0  0  0  0  0  0  0
   -5.5655   11.7855   -2.2186 H   0  0  0  0  0  0  0  0  0  0  0  0
   -4.7762   15.6568   -3.3761 H   0  0  0  0  0  0  0  0  0  0  0  0
   -6.5021   15.2691   -3.5777 H   0  0  0  0  0  0  0  0  0  0  0  0
   -5.3418   15.6352    0.3329 H   0  0  0  0  0  0  0  0  0  0  0  0
   -4.9256   13.9342    0.5964 H   0  0  0  0  0  0  0  0  0  0  0  0
   -3.8261   15.8879   -1.4442 H   0  0  0  0  0  0  0  0  0  0  0  0
   -3.3586   13.8003   -2.6913 H   0  0  0  0  0  0  0  0  0  0  0  0
   -3.9318   12.8533   -1.2766 H   0  0  0  0  0  0  0  0  0  0  0  0
   -3.8270   15.3968    2.4305 H   0  0  0  0  0  0  0  0  0  0  0  0
  1  3  1  0  0  0  0
  1 12  2  0  0  0  0
  2 12  1  0  0  0  0
  2 13  2  0  0  0  0
  3  4  2  0  0  0  0
  3 10  1  0  0  0  0
  4 13  1  0  0  0  0
  4 14  1  0  0  0  0
  5  6  1  0  0  0  0
  5  7  1  0  0  0  0
  6  8  1  0  0  0  0
  7 15  1  0  0  0  0
  8 15  1  0  0  0  0
  9 10  1  0  0  0  0
  9 14  1  0  0  0  0
 10 11  1  0  0  0  0
 11 15  1  0  0  0  0
  1 16  1  0  0  0  0
  2 17  1  0  0  0  0
  5 18  1  0  0  0  0
  5 19  1  0  0  0  0
  6 20  1  0  0  0  0
  6 21  1  0  0  0  0
  7 22  1  0  0  0  0
  7 23  1  0  0  0  0
  8 24  1  0  0  0  0
  8 25  1  0  0  0  0
  9 26  1  0  0  0  0
  9 27  1  0  0  0  0
 10 28  1  0  0  0  0
 11 29  1  0  0  0  0
 11 30  1  0  0  0  0
 14 31  1  0  0  0  0
M  END
> <HYBRID receptor title>
5S18(A) > WOY(A-201)

> <HYBRID receptor filename>
5s18.oedu

> <HYBRID Chemgauss4 score>
-7.586771

> <HYBRID receptor title>
5S18(A) > WOY(A-201)

> <HYBRID receptor filename>
5s18.oedu

> <Dock Type>
Hybrid

$$$$
MOL0215_1
  -OEChem-06022418243D

 23 25  0     1  0  0  0  0  0999 V2000
   -1.6475   14.7830   -1.0161 C   0  0  0  0  0  0  0  0  0  0  0  0
   -0.2013   14.7832    0.7532 C   0  0  0  0  0  0  0  0  0  0  0  0
   -2.6972   14.9322   -0.1464 C   0  0  0  0  0  0  0  0  0  0  0  0
   -2.4060   15.0098    1.2072 C   0  0  0  0  0  0  0  0  0  0  0  0
   -5.9794   14.3226   -2.0718 C   0  0  0  0  0  0  0  0  0  0  0  0
   -4.6572   14.2348   -2.7816 C   0  0  0  0  0  0  0  0  0  0  0  0
   -4.7095   14.9565    1.0671 C   0  0  0  0  0  0  0  0  0  0  0  0
   -4.1647   15.0846   -0.3798 C   0  0  2  0  0  0  0  0  0  0  0  0
   -4.7266   14.0429   -1.2955 C   0  0  0  0  0  0  0  0  0  0  0  0
   -0.3715   14.6994   -0.5871 N   0  0  0  0  0  0  0  0  0  0  0  0
   -1.1564   14.9391    1.6951 N   0  0  0  0  0  0  0  0  0  0  0  0
   -3.5804   15.1704    1.9572 N   0  0  0  0  0  0  0  0  0  0  0  0
   -1.7876   14.7311   -2.0890 H   0  0  0  0  0  0  0  0  0  0  0  0
    0.8196   14.7188    1.1106 H   0  0  0  0  0  0  0  0  0  0  0  0
   -6.4408   15.2986   -1.9855 H   0  0  0  0  0  0  0  0  0  0  0  0
   -6.6784   13.5062   -2.2055 H   0  0  0  0  0  0  0  0  0  0  0  0
   -4.4693   13.3594   -3.3911 H   0  0  0  0  0  0  0  0  0  0  0  0
   -4.2331   15.1521   -3.1711 H   0  0  0  0  0  0  0  0  0  0  0  0
   -5.4986   15.6926    1.2543 H   0  0  0  0  0  0  0  0  0  0  0  0
   -5.1330   13.9621    1.2548 H   0  0  0  0  0  0  0  0  0  0  0  0
   -4.3665   16.0900   -0.7684 H   0  0  0  0  0  0  0  0  0  0  0  0
   -4.5828   13.0462   -0.9032 H   0  0  0  0  0  0  0  0  0  0  0  0
   -3.6127   15.1772    2.9648 H   0  0  0  0  0  0  0  0  0  0  0  0
  1  3  1  0  0  0  0
  1 10  2  0  0  0  0
  2 10  1  0  0  0  0
  2 11  2  0  0  0  0
  3  4  2  0  0  0  0
  3  8  1  0  0  0  0
  4 11  1  0  0  0  0
  4 12  1  0  0  0  0
  5  6  1  0  0  0  0
  5  9  1  0  0  0  0
  6  9  1  0  0  0  0
  7  8  1  0  0  0  0
  7 12  1  0  0  0  0
  8  9  1  0  0  0  0
  1 13  1  0  0  0  0
  2 14  1  0  0  0  0
  5 15  1  0  0  0  0
  5 16  1  0  0  0  0
  6 17  1  0  0  0  0
  6 18  1  0  0  0  0
  7 19  1  0  0  0  0
  7 20  1  0  0  0  0
  8 21  1  0  0  0  0
  9 22  1  0  0  0  0
 12 23  1  0  0  0  0
M  END
> <HYBRID receptor title>
5S18(A) > WOY(A-201)

> <HYBRID receptor filename>
5s18.oedu

> <HYBRID Chemgauss4 score>
-7.583469

> <HYBRID receptor title>
5S18(A) > WOY(A-201)

> <HYBRID receptor filename>
5s18.oedu

> <Dock Type>
Hybrid

$$$$
MOL0103_2
  -OEChem-06022418243D

 29 31  0     1  0  0  0  0  0999 V2000
   -2.7666   14.8611    1.4010 C   0  0  0  0  0  0  0  0  0  0  0  0
   -0.5368   14.7843    0.9109 C   0  0  0  0  0  0  0  0  0  0  0  0
   -3.0501   14.7787    0.0630 C   0  0  0  0  0  0  0  0  0  0  0  0
   -1.9890   14.6862   -0.8271 C   0  0  0  0  0  0  0  0  0  0  0  0
   -4.3498   14.7323   -0.6567 C   0  0  0  0  0  0  0  0  0  0  0  0
   -0.9279   11.0473   -3.9456 C   0  0  0  0  0  0  0  0  0  0  0  0
   -1.9732   11.4347   -2.9371 C   0  0  0  0  0  0  0  0  0  0  0  0
   -3.8828   14.9491   -2.1105 C   0  0  0  0  0  0  0  0  0  0  0  0
   -1.5553   12.4127   -3.9999 C   0  0  0  0  0  0  0  0  0  0  0  0
   -0.7427   13.6454   -3.6299 C   0  0  0  0  0  0  0  0  0  0  0  0
   -1.6168   14.8436   -3.2797 C   0  0  0  0  0  0  0  0  0  0  0  0
   -1.4990   14.8695    1.8595 N   0  0  0  0  0  0  0  0  0  0  0  0
   -0.7052   14.6903   -0.4262 N   0  0  0  0  0  0  0  0  0  0  0  0
   -2.4680   14.5891   -2.1470 N   0  0  1  0  0  0  0  0  0  0  0  0
   -3.5432   14.9238    2.1534 H   0  0  0  0  0  0  0  0  0  0  0  0
    0.4869   14.7952    1.2658 H   0  0  0  0  0  0  0  0  0  0  0  0
   -4.8563   13.7703   -0.5395 H   0  0  0  0  0  0  0  0  0  0  0  0
   -4.9989   15.5484   -0.3236 H   0  0  0  0  0  0  0  0  0  0  0  0
    0.0954   10.9597   -3.6020 H   0  0  0  0  0  0  0  0  0  0  0  0
   -1.2065   10.3340   -4.7116 H   0  0  0  0  0  0  0  0  0  0  0  0
   -2.9528   10.9815   -3.0269 H   0  0  0  0  0  0  0  0  0  0  0  0
   -1.6500   11.6064   -1.9178 H   0  0  0  0  0  0  0  0  0  0  0  0
   -4.4483   14.2922   -2.7845 H   0  0  0  0  0  0  0  0  0  0  0  0
   -4.0465   15.9831   -2.4325 H   0  0  0  0  0  0  0  0  0  0  0  0
   -2.2548   12.6125   -4.8026 H   0  0  0  0  0  0  0  0  0  0  0  0
   -0.1022   13.9106   -4.4790 H   0  0  0  0  0  0  0  0  0  0  0  0
   -0.0825   13.4024   -2.7888 H   0  0  0  0  0  0  0  0  0  0  0  0
   -0.9891   15.7023   -3.0216 H   0  0  0  0  0  0  0  0  0  0  0  0
   -2.2555   15.1292   -4.1215 H   0  0  0  0  0  0  0  0  0  0  0  0
  1  3  1  0  0  0  0
  1 12  2  0  0  0  0
  2 12  1  0  0  0  0
  2 13  2  0  0  0  0
  3  4  2  0  0  0  0
  3  5  1  0  0  0  0
  4 13  1  0  0  0  0
  4 14  1  0  0  0  0
  5  8  1  0  0  0  0
  6  7  1  0  0  0  0
  6  9  1  0  0  0  0
  7  9  1  0  0  0  0
  8 14  1  0  0  0  0
  9 10  1  0  0  0  0
 10 11  1  0  0  0  0
 11 14  1  0  0  0  0
  1 15  1  0  0  0  0
  2 16  1  0  0  0  0
  5 17  1  0  0  0  0
  5 18  1  0  0  0  0
  6 19  1  0  0  0  0
  6 20  1  0  0  0  0
  7 21  1  0  0  0  0
  7 22  1  0  0  0  0
  8 23  1  0  0  0  0
  8 24  1  0  0  0  0
  9 25  1  0  0  0  0
 10 26  1  0  0  0  0
 10 27  1  0  0  0  0
 11 28  1  0  0  0  0
 11 29  1  0  0  0  0
M  END
> <HYBRID receptor title>
5S18(A) > WOY(A-201)

> <HYBRID receptor filename>
5s18.oedu

> <HYBRID Chemgauss4 score>
-7.579639

> <HYBRID receptor title>
5S18(A) > WOY(A-201)

> <HYBRID receptor filename>
5s18.oedu

> <Dock Type>
Hybrid

$$$$
MOL0068_9
  -OEChem-06022418243D

 29 31  0     1  0  0  0  0  0999 V2000
    2.5479   13.1328   -3.7054 C   0  0  0  0  0  0  0  0  0  0  0  0
    2.5243   14.2153   -2.8261 C   0  0  0  0  0  0  0  0  0  0  0  0
    1.4075   12.8049   -4.4388 C   0  0  0  0  0  0  0  0  0  0  0  0
    1.3603   14.9700   -2.6801 C   0  0  0  0  0  0  0  0  0  0  0  0
    0.2435   13.5596   -4.2927 C   0  0  0  0  0  0  0  0  0  0  0  0
   -2.3167   14.6241    1.3147 C   0  0  0  0  0  0  0  0  0  0  0  0
   -0.0790   14.8658    0.9238 C   0  0  0  0  0  0  0  0  0  0  0  0
   -2.5488   14.7190   -0.0323 C   0  0  0  0  0  0  0  0  0  0  0  0
    0.2199   14.6421   -3.4134 C   0  0  0  0  0  0  0  0  0  0  0  0
   -1.4580   14.8804   -0.8754 C   0  0  0  0  0  0  0  0  0  0  0  0
   -3.8127   14.6438   -0.8110 C   0  0  0  0  0  0  0  0  0  0  0  0
   -3.3303   15.1316   -2.1923 C   0  0  0  0  0  0  0  0  0  0  0  0
   -1.0333   15.4538   -3.2565 C   0  0  0  0  0  0  0  0  0  0  0  0
   -1.0725   14.6989    1.8282 N   0  0  0  0  0  0  0  0  0  0  0  0
   -0.1957   14.9615   -0.4187 N   0  0  0  0  0  0  0  0  0  0  0  0
   -1.8832   14.9369   -2.2160 N   0  0  1  0  0  0  0  0  0  0  0  0
    3.4547   12.5461   -3.8200 H   0  0  0  0  0  0  0  0  0  0  0  0
    3.4125   14.4714   -2.2559 H   0  0  0  0  0  0  0  0  0  0  0  0
    1.4258   11.9629   -5.1243 H   0  0  0  0  0  0  0  0  0  0  0  0
    1.3511   15.8116   -1.9925 H   0  0  0  0  0  0  0  0  0  0  0  0
   -0.6402   13.2967   -4.8681 H   0  0  0  0  0  0  0  0  0  0  0  0
   -3.1175   14.4855    2.0307 H   0  0  0  0  0  0  0  0  0  0  0  0
    0.9257   14.9325    1.3239 H   0  0  0  0  0  0  0  0  0  0  0  0
   -4.2093   13.6260   -0.8634 H   0  0  0  0  0  0  0  0  0  0  0  0
   -4.5604   15.3235   -0.3901 H   0  0  0  0  0  0  0  0  0  0  0  0
   -3.7968   14.5292   -2.9830 H   0  0  0  0  0  0  0  0  0  0  0  0
   -3.6013   16.1790   -2.3629 H   0  0  0  0  0  0  0  0  0  0  0  0
   -0.7917   16.4933   -3.0092 H   0  0  0  0  0  0  0  0  0  0  0  0
   -1.6121   15.4667   -4.1860 H   0  0  0  0  0  0  0  0  0  0  0  0
  1  2  1  0  0  0  0
  1  3  2  0  0  0  0
  2  4  2  0  0  0  0
  3  5  1  0  0  0  0
  4  9  1  0  0  0  0
  5  9  2  0  0  0  0
  6  8  1  0  0  0  0
  6 14  2  0  0  0  0
  7 14  1  0  0  0  0
  7 15  2  0  0  0  0
  8 10  2  0  0  0  0
  8 11  1  0  0  0  0
  9 13  1  0  0  0  0
 10 15  1  0  0  0  0
 10 16  1  0  0  0  0
 11 12  1  0  0  0  0
 12 16  1  0  0  0  0
 13 16  1  0  0  0  0
  1 17  1  0  0  0  0
  2 18  1  0  0  0  0
  3 19  1  0  0  0  0
  4 20  1  0  0  0  0
  5 21  1  0  0  0  0
  6 22  1  0  0  0  0
  7 23  1  0  0  0  0
 11 24  1  0  0  0  0
 11 25  1  0  0  0  0
 12 26  1  0  0  0  0
 12 27  1  0  0  0  0
 13 28  1  0  0  0  0
 13 29  1  0  0  0  0
M  END
> <HYBRID receptor title>
5S18(A) > WOY(A-201)

> <HYBRID receptor filename>
5s18.oedu

> <HYBRID Chemgauss4 score>
-7.578322

> <HYBRID receptor title>
5S18(A) > WOY(A-201)

> <HYBRID receptor filename>
5s18.oedu

> <Dock Type>
Hybrid

$$$$
MOL0179_1
  -OEChem-06022418243D

 20 21  0     1  0  0  0  0  0999 V2000
   -1.6646   14.7255   -1.0545 C   0  0  0  0  0  0  0  0  0  0  0  0
   -0.2998   14.7543    0.7775 C   0  0  0  0  0  0  0  0  0  0  0  0
   -2.7143   15.1142   -0.2639 C   0  0  0  0  0  0  0  0  0  0  0  0
   -2.4711   15.3137    1.0836 C   0  0  0  0  0  0  0  0  0  0  0  0
   -4.1356   15.3959   -0.6033 C   0  0  0  0  0  0  0  0  0  0  0  0
   -4.7439   15.7053    0.7917 C   0  0  1  0  0  0  0  0  0  0  0  0
   -5.7766   14.6646    1.2099 C   0  0  0  0  0  0  0  0  0  0  0  0
   -0.4280   14.5332   -0.5520 N   0  0  0  0  0  0  0  0  0  0  0  0
   -1.2622   15.1407    1.6430 N   0  0  0  0  0  0  0  0  0  0  0  0
   -3.6399   15.7081    1.7440 N   0  0  0  0  0  0  0  0  0  0  0  0
   -6.2733   15.0103    2.4903 O   0  0  0  0  0  0  0  0  0  0  0  0
   -1.7753   14.5554   -2.1185 H   0  0  0  0  0  0  0  0  0  0  0  0
    0.6889   14.6040    1.1945 H   0  0  0  0  0  0  0  0  0  0  0  0
   -4.1982   16.2737   -1.2547 H   0  0  0  0  0  0  0  0  0  0  0  0
   -4.6061   14.5350   -1.0877 H   0  0  0  0  0  0  0  0  0  0  0  0
   -5.2205   16.6925    0.7764 H   0  0  0  0  0  0  0  0  0  0  0  0
   -5.3141   13.6784    1.2578 H   0  0  0  0  0  0  0  0  0  0  0  0
   -6.6010   14.6492    0.4964 H   0  0  0  0  0  0  0  0  0  0  0  0
   -3.7087   15.8894    2.7332 H   0  0  0  0  0  0  0  0  0  0  0  0
   -6.9280   14.3341    2.7344 H   0  0  0  0  0  0  0  0  0  0  0  0
  1  3  1  0  0  0  0
  1  8  2  0  0  0  0
  2  8  1  0  0  0  0
  2  9  2  0  0  0  0
  3  4  2  0  0  0  0
  3  5  1  0  0  0  0
  4  9  1  0  0  0  0
  4 10  1  0  0  0  0
  5  6  1  0  0  0  0
  6  7  1  0  0  0  0
  6 10  1  0  0  0  0
  7 11  1  0  0  0  0
  1 12  1  0  0  0  0
  2 13  1  0  0  0  0
  5 14  1  0  0  0  0
  5 15  1  0  0  0  0
  6 16  1  0  0  0  0
  7 17  1  0  0  0  0
  7 18  1  0  0  0  0
 10 19  1  0  0  0  0
 11 20  1  0  0  0  0
M  END
> <HYBRID receptor title>
5S18(A) > WOY(A-201)

> <HYBRID receptor filename>
5s18.oedu

> <HYBRID Chemgauss4 score>
-7.576839

> <HYBRID receptor title>
5S18(A) > WOY(A-201)

> <HYBRID receptor filename>
5s18.oedu

> <Dock Type>
Hybrid

$$$$
MOL0130_1
  -OEChem-06022418243D

 14 15  0     0  0  0  0  0  0999 V2000
   -3.4267   15.2814   -0.8563 C   0  0  0  0  0  0  0  0  0  0  0  0
   -0.8670   14.7821   -0.9945 C   0  0  0  0  0  0  0  0  0  0  0  0
   -4.2387   15.3585    0.2553 C   0  0  0  0  0  0  0  0  0  0  0  0
   -0.0023   14.4472    1.1229 C   0  0  0  0  0  0  0  0  0  0  0  0
   -2.1145   14.9855   -0.4064 C   0  0  0  0  0  0  0  0  0  0  0  0
   -2.1729   14.8907    0.9787 C   0  0  0  0  0  0  0  0  0  0  0  0
    0.2027   14.5090   -0.2122 N   0  0  0  0  0  0  0  0  0  0  0  0
   -1.1499   14.6230    1.8090 N   0  0  0  0  0  0  0  0  0  0  0  0
   -3.4674   15.1188    1.3635 N   0  0  0  0  0  0  0  0  0  0  0  0
   -3.7489   15.4242   -1.8786 H   0  0  0  0  0  0  0  0  0  0  0  0
   -0.6903   14.8288   -2.0618 H   0  0  0  0  0  0  0  0  0  0  0  0
   -5.2955   15.5619    0.3556 H   0  0  0  0  0  0  0  0  0  0  0  0
    0.8747   14.2265    1.7217 H   0  0  0  0  0  0  0  0  0  0  0  0
   -3.8018   15.1121    2.3171 H   0  0  0  0  0  0  0  0  0  0  0  0
  1  3  2  0  0  0  0
  1  5  1  0  0  0  0
  2  5  1  0  0  0  0
  2  7  2  0  0  0  0
  3  9  1  0  0  0  0
  4  7  1  0  0  0  0
  4  8  2  0  0  0  0
  5  6  2  0  0  0  0
  6  8  1  0  0  0  0
  6  9  1  0  0  0  0
  1 10  1  0  0  0  0
  2 11  1  0  0  0  0
  3 12  1  0  0  0  0
  4 13  1  0  0  0  0
  9 14  1  0  0  0  0
M  END
> <HYBRID receptor title>
5S18(A) > WOY(A-201)

> <HYBRID receptor filename>
5s18.oedu

> <HYBRID Chemgauss4 score>
-7.559839

> <HYBRID receptor title>
5S18(A) > WOY(A-201)

> <HYBRID receptor filename>
5s18.oedu

> <Dock Type>
Hybrid

$$$$
MOL0024_1
  -OEChem-06022418243D

 22 23  0     1  0  0  0  0  0999 V2000
   -1.6421   14.9623   -0.9760 C   0  0  0  0  0  0  0  0  0  0  0  0
   -0.3292   14.8968    0.8934 C   0  0  0  0  0  0  0  0  0  0  0  0
   -2.7500   15.1099   -0.1815 C   0  0  0  0  0  0  0  0  0  0  0  0
   -2.5574   15.1515    1.1911 C   0  0  0  0  0  0  0  0  0  0  0  0
   -4.8450   15.1416    0.8827 C   0  0  0  0  0  0  0  0  0  0  0  0
   -4.1940   15.2932   -0.5172 C   0  0  2  0  0  0  0  0  0  0  0  0
   -6.1997   14.4820   -1.7694 C   0  0  0  0  0  0  0  0  0  0  0  0
   -4.7361   14.2918   -1.5249 C   0  0  0  0  0  0  0  0  0  0  0  0
   -0.4023   14.8467   -0.4575 N   0  0  0  0  0  0  0  0  0  0  0  0
   -1.3481   15.0478    1.7668 N   0  0  0  0  0  0  0  0  0  0  0  0
   -3.7808   15.3154    1.8574 N   0  0  0  0  0  0  0  0  0  0  0  0
   -1.7048   14.9369   -2.0571 H   0  0  0  0  0  0  0  0  0  0  0  0
    0.6616   14.8063    1.3224 H   0  0  0  0  0  0  0  0  0  0  0  0
   -5.6369   15.8834    1.0305 H   0  0  0  0  0  0  0  0  0  0  0  0
   -5.2892   14.1470    1.0120 H   0  0  0  0  0  0  0  0  0  0  0  0
   -4.3436   16.3168   -0.8824 H   0  0  0  0  0  0  0  0  0  0  0  0
   -6.7509   14.3777   -0.8275 H   0  0  0  0  0  0  0  0  0  0  0  0
   -6.5779   13.7292   -2.4692 H   0  0  0  0  0  0  0  0  0  0  0  0
   -6.3998   15.4808   -2.1714 H   0  0  0  0  0  0  0  0  0  0  0  0
   -4.1941   14.3977   -2.4709 H   0  0  0  0  0  0  0  0  0  0  0  0
   -4.5594   13.2748   -1.1585 H   0  0  0  0  0  0  0  0  0  0  0  0
   -3.8866   15.2997    2.8600 H   0  0  0  0  0  0  0  0  0  0  0  0
  1  3  1  0  0  0  0
  1  9  2  0  0  0  0
  2  9  1  0  0  0  0
  2 10  2  0  0  0  0
  3  4  2  0  0  0  0
  3  6  1  0  0  0  0
  4 10  1  0  0  0  0
  4 11  1  0  0  0  0
  5  6  1  0  0  0  0
  5 11  1  0  0  0  0
  6  8  1  0  0  0  0
  7  8  1  0  0  0  0
  1 12  1  0  0  0  0
  2 13  1  0  0  0  0
  5 14  1  0  0  0  0
  5 15  1  0  0  0  0
  6 16  1  0  0  0  0
  7 17  1  0  0  0  0
  7 18  1  0  0  0  0
  7 19  1  0  0  0  0
  8 20  1  0  0  0  0
  8 21  1  0  0  0  0
 11 22  1  0  0  0  0
M  END
> <HYBRID receptor title>
5S18(A) > WOY(A-201)

> <HYBRID receptor filename>
5s18.oedu

> <HYBRID Chemgauss4 score>
-7.550661

> <HYBRID receptor title>
5S18(A) > WOY(A-201)

> <HYBRID receptor filename>
5s18.oedu

> <Dock Type>
Hybrid

$$$$
MOL0183_2
  -OEChem-06022418243D

 31 32  0     1  0  0  0  0  0999 V2000
   -2.5569   14.9518    1.5187 C   0  0  0  0  0  0  0  0  0  0  0  0
   -0.2905   14.8053    1.2740 C   0  0  0  0  0  0  0  0  0  0  0  0
   -2.6986   14.8208    0.1623 C   0  0  0  0  0  0  0  0  0  0  0  0
   -1.5518   14.6681   -0.6046 C   0  0  0  0  0  0  0  0  0  0  0  0
   -3.9153   14.7738   -0.6904 C   0  0  0  0  0  0  0  0  0  0  0  0
   -3.2908   14.9201   -2.0930 C   0  0  0  0  0  0  0  0  0  0  0  0
    0.3307   13.4705   -4.8316 C   0  0  0  0  0  0  0  0  0  0  0  0
    1.1331   13.3187   -2.4576 C   0  0  0  0  0  0  0  0  0  0  0  0
   -1.0091   12.2202   -3.1288 C   0  0  0  0  0  0  0  0  0  0  0  0
   -0.9170   14.7160   -3.0074 C   0  0  0  0  0  0  0  0  0  0  0  0
   -0.1075   13.4476   -3.3576 C   0  0  0  0  0  0  0  0  0  0  0  0
   -1.3454   14.9509    2.1099 N   0  0  0  0  0  0  0  0  0  0  0  0
   -0.3183   14.6600   -0.0688 N   0  0  0  0  0  0  0  0  0  0  0  0
   -1.8902   14.5274   -1.9636 N   0  0  1  0  0  0  0  0  0  0  0  0
   -3.4072   15.0629    2.1805 H   0  0  0  0  0  0  0  0  0  0  0  0
    0.6897   14.8079    1.7360 H   0  0  0  0  0  0  0  0  0  0  0  0
   -4.4568   13.8289   -0.5912 H   0  0  0  0  0  0  0  0  0  0  0  0
   -4.5742   15.6172   -0.4606 H   0  0  0  0  0  0  0  0  0  0  0  0
   -3.7987   14.2486   -2.7977 H   0  0  0  0  0  0  0  0  0  0  0  0
   -3.3919   15.9432   -2.4703 H   0  0  0  0  0  0  0  0  0  0  0  0
   -0.5336   13.5618   -5.4990 H   0  0  0  0  0  0  0  0  0  0  0  0
    1.0044   14.3089   -5.0392 H   0  0  0  0  0  0  0  0  0  0  0  0
    0.8615   12.5498   -5.0994 H   0  0  0  0  0  0  0  0  0  0  0  0
    0.8507   13.2997   -1.3986 H   0  0  0  0  0  0  0  0  0  0  0  0
    1.6889   12.3975   -2.6613 H   0  0  0  0  0  0  0  0  0  0  0  0
    1.8163   14.1627   -2.6038 H   0  0  0  0  0  0  0  0  0  0  0  0
   -1.3463   12.1633   -2.0877 H   0  0  0  0  0  0  0  0  0  0  0  0
   -0.4767   11.2898   -3.3567 H   0  0  0  0  0  0  0  0  0  0  0  0
   -1.9001   12.2598   -3.7656 H   0  0  0  0  0  0  0  0  0  0  0  0
   -1.4601   15.0870   -3.8838 H   0  0  0  0  0  0  0  0  0  0  0  0
   -0.2476   15.5158   -2.6705 H   0  0  0  0  0  0  0  0  0  0  0  0
  1  3  1  0  0  0  0
  1 12  2  0  0  0  0
  2 12  1  0  0  0  0
  2 13  2  0  0  0  0
  3  4  2  0  0  0  0
  3  5  1  0  0  0  0
  4 13  1  0  0  0  0
  4 14  1  0  0  0  0
  5  6  1  0  0  0  0
  6 14  1  0  0  0  0
  7 11  1  0  0  0  0
  8 11  1  0  0  0  0
  9 11  1  0  0  0  0
 10 11  1  0  0  0  0
 10 14  1  0  0  0  0
  1 15  1  0  0  0  0
  2 16  1  0  0  0  0
  5 17  1  0  0  0  0
  5 18  1  0  0  0  0
  6 19  1  0  0  0  0
  6 20  1  0  0  0  0
  7 21  1  0  0  0  0
  7 22  1  0  0  0  0
  7 23  1  0  0  0  0
  8 24  1  0  0  0  0
  8 25  1  0  0  0  0
  8 26  1  0  0  0  0
  9 27  1  0  0  0  0
  9 28  1  0  0  0  0
  9 29  1  0  0  0  0
 10 30  1  0  0  0  0
 10 31  1  0  0  0  0
M  END
> <HYBRID receptor title>
5S18(A) > WOY(A-201)

> <HYBRID receptor filename>
5s18.oedu

> <HYBRID Chemgauss4 score>
-7.496221

> <HYBRID receptor title>
5S18(A) > WOY(A-201)

> <HYBRID receptor filename>
5s18.oedu

> <Dock Type>
Hybrid

$$$$
MOL0124_2
  -OEChem-06022418243D

 26 28  0     1  0  0  0  0  0999 V2000
   -5.1490   12.7646   -3.8592 C   0  0  0  0  0  0  0  0  0  0  0  0
   -4.4827   13.9307   -4.2357 C   0  0  0  0  0  0  0  0  0  0  0  0
   -5.3078   12.4575   -2.5079 C   0  0  0  0  0  0  0  0  0  0  0  0
   -3.9752   14.7897   -3.2609 C   0  0  0  0  0  0  0  0  0  0  0  0
   -4.8003   13.3164   -1.5331 C   0  0  0  0  0  0  0  0  0  0  0  0
   -1.0403   14.8305   -1.0285 C   0  0  0  0  0  0  0  0  0  0  0  0
    0.0440   14.6301    0.9723 C   0  0  0  0  0  0  0  0  0  0  0  0
   -4.1340   14.4826   -1.9096 C   0  0  0  0  0  0  0  0  0  0  0  0
   -2.2103   15.0832   -0.3579 C   0  0  0  0  0  0  0  0  0  0  0  0
   -2.1672   15.1087    1.0273 C   0  0  0  0  0  0  0  0  0  0  0  0
   -4.3971   15.3987    0.4743 C   0  0  0  0  0  0  0  0  0  0  0  0
   -3.5847   15.4117   -0.8540 C   0  0  2  0  0  0  0  0  0  0  0  0
    0.1168   14.5907   -0.3787 N   0  0  0  0  0  0  0  0  0  0  0  0
   -1.0450   14.8825    1.7302 N   0  0  0  0  0  0  0  0  0  0  0  0
   -3.4286   15.4073    1.5588 N   0  0  0  0  0  0  0  0  0  0  0  0
   -5.5452   12.0965   -4.6184 H   0  0  0  0  0  0  0  0  0  0  0  0
   -4.3598   14.1706   -5.2879 H   0  0  0  0  0  0  0  0  0  0  0  0
   -5.8275   11.5502   -2.2143 H   0  0  0  0  0  0  0  0  0  0  0  0
   -3.4572   15.6960   -3.5636 H   0  0  0  0  0  0  0  0  0  0  0  0
   -4.9287   13.0689   -0.4826 H   0  0  0  0  0  0  0  0  0  0  0  0
   -0.9857   14.8151   -2.1103 H   0  0  0  0  0  0  0  0  0  0  0  0
    0.9666   14.4393    1.5081 H   0  0  0  0  0  0  0  0  0  0  0  0
   -5.0541   16.2734    0.5359 H   0  0  0  0  0  0  0  0  0  0  0  0
   -5.0261   14.5041    0.5621 H   0  0  0  0  0  0  0  0  0  0  0  0
   -3.5718   16.4473   -1.2665 H   0  0  0  0  0  0  0  0  0  0  0  0
   -3.6420   15.4260    2.5438 H   0  0  0  0  0  0  0  0  0  0  0  0
  1  2  1  0  0  0  0
  1  3  2  0  0  0  0
  2  4  2  0  0  0  0
  3  5  1  0  0  0  0
  4  8  1  0  0  0  0
  5  8  2  0  0  0  0
  6  9  1  0  0  0  0
  6 13  2  0  0  0  0
  7 13  1  0  0  0  0
  7 14  2  0  0  0  0
  8 12  1  0  0  0  0
  9 10  2  0  0  0  0
  9 12  1  0  0  0  0
 10 14  1  0  0  0  0
 10 15  1  0  0  0  0
 11 12  1  0  0  0  0
 11 15  1  0  0  0  0
  1 16  1  0  0  0  0
  2 17  1  0  0  0  0
  3 18  1  0  0  0  0
  4 19  1  0  0  0  0
  5 20  1  0  0  0  0
  6 21  1  0  0  0  0
  7 22  1  0  0  0  0
 11 23  1  0  0  0  0
 11 24  1  0  0  0  0
 12 25  1  0  0  0  0
 15 26  1  0  0  0  0
M  END
> <HYBRID receptor title>
5S18(A) > WOY(A-201)

> <HYBRID receptor filename>
5s18.oedu

> <HYBRID Chemgauss4 score>
-7.490152

> <HYBRID receptor title>
5S18(A) > WOY(A-201)

> <HYBRID receptor filename>
5s18.oedu

> <Dock Type>
Hybrid

$$$$
MOL0095_1
  -OEChem-06022418243D

 26 27  0     1  0  0  0  0  0999 V2000
   -0.8876   14.6607   -0.8910 C   0  0  0  0  0  0  0  0  0  0  0  0
    0.1087   14.8356    1.1582 C   0  0  0  0  0  0  0  0  0  0  0  0
   -2.1134   14.8272   -0.2991 C   0  0  0  0  0  0  0  0  0  0  0  0
   -2.1457   15.0067    1.0756 C   0  0  0  0  0  0  0  0  0  0  0  0
   -4.3522   14.8549    0.4146 C   0  0  0  0  0  0  0  0  0  0  0  0
   -3.4898   14.9066   -0.8739 C   0  0  2  0  0  0  0  0  0  0  0  0
   -3.8284   13.7897   -1.8484 C   0  0  0  0  0  0  0  0  0  0  0  0
   -5.2588   13.9131   -2.3652 C   0  0  0  0  0  0  0  0  0  0  0  0
   -5.5880   12.8219   -3.3740 C   0  0  0  0  0  0  0  0  0  0  0  0
    0.2557   14.6556   -0.1754 N   0  0  0  0  0  0  0  0  0  0  0  0
   -1.0421   15.0173    1.8413 N   0  0  0  0  0  0  0  0  0  0  0  0
   -3.4652   15.1717    1.5218 N   0  0  0  0  0  0  0  0  0  0  0  0
   -6.9232   13.0017   -3.8256 O   0  0  0  0  0  0  0  0  0  0  0  0
   -0.7746   14.5310   -1.9604 H   0  0  0  0  0  0  0  0  0  0  0  0
    1.0200   14.8348    1.7444 H   0  0  0  0  0  0  0  0  0  0  0  0
   -5.1822   15.5673    0.3611 H   0  0  0  0  0  0  0  0  0  0  0  0
   -4.7775   13.8562    0.5718 H   0  0  0  0  0  0  0  0  0  0  0  0
   -3.6132   15.8828   -1.3589 H   0  0  0  0  0  0  0  0  0  0  0  0
   -3.1249   13.8203   -2.6885 H   0  0  0  0  0  0  0  0  0  0  0  0
   -3.6947   12.8236   -1.3481 H   0  0  0  0  0  0  0  0  0  0  0  0
   -5.9699   13.8632   -1.5312 H   0  0  0  0  0  0  0  0  0  0  0  0
   -5.4113   14.8953   -2.8301 H   0  0  0  0  0  0  0  0  0  0  0  0
   -4.9182   12.8739   -4.2382 H   0  0  0  0  0  0  0  0  0  0  0  0
   -5.5054   11.8302   -2.9179 H   0  0  0  0  0  0  0  0  0  0  0  0
   -3.7305   15.2448    2.4918 H   0  0  0  0  0  0  0  0  0  0  0  0
   -7.1009   12.2928   -4.4648 H   0  0  0  0  0  0  0  0  0  0  0  0
  1  3  1  0  0  0  0
  1 10  2  0  0  0  0
  2 10  1  0  0  0  0
  2 11  2  0  0  0  0
  3  4  2  0  0  0  0
  3  6  1  0  0  0  0
  4 11  1  0  0  0  0
  4 12  1  0  0  0  0
  5  6  1  0  0  0  0
  5 12  1  0  0  0  0
  6  7  1  0  0  0  0
  7  8  1  0  0  0  0
  8  9  1  0  0  0  0
  9 13  1  0  0  0  0
  1 14  1  0  0  0  0
  2 15  1  0  0  0  0
  5 16  1  0  0  0  0
  5 17  1  0  0  0  0
  6 18  1  0  0  0  0
  7 19  1  0  0  0  0
  7 20  1  0  0  0  0
  8 21  1  0  0  0  0
  8 22  1  0  0  0  0
  9 23  1  0  0  0  0
  9 24  1  0  0  0  0
 12 25  1  0  0  0  0
 13 26  1  0  0  0  0
M  END
> <HYBRID receptor title>
5S18(A) > WOY(A-201)

> <HYBRID receptor filename>
5s18.oedu

> <HYBRID Chemgauss4 score>
-7.396344

> <HYBRID receptor title>
5S18(A) > WOY(A-201)

> <HYBRID receptor filename>
5s18.oedu

> <Dock Type>
Hybrid

$$$$
MOL0213_5
  -OEChem-06022418243D

 26 28  0     1  0  0  0  0  0999 V2000
   -2.6496   14.7928    1.3208 C   0  0  0  0  0  0  0  0  0  0  0  0
   -0.3669   14.6768    1.1271 C   0  0  0  0  0  0  0  0  0  0  0  0
   -2.7608   14.7686   -0.0431 C   0  0  0  0  0  0  0  0  0  0  0  0
   -1.5843   14.6823   -0.7535 C   0  0  0  0  0  0  0  0  0  0  0  0
   -3.9429   14.8841   -0.9351 C   0  0  0  0  0  0  0  0  0  0  0  0
    1.2226   14.8598   -4.7206 C   0  0  0  0  0  0  0  0  0  0  0  0
    0.1493   15.9126   -4.7408 C   0  0  0  0  0  0  0  0  0  0  0  0
   -3.3324   14.5705   -2.3176 C   0  0  0  0  0  0  0  0  0  0  0  0
    0.4177   15.1366   -3.4874 C   0  0  0  0  0  0  0  0  0  0  0  0
   -1.4501   14.7373    1.9418 N   0  0  0  0  0  0  0  0  0  0  0  0
   -0.3552   14.6602   -0.2219 N   0  0  0  0  0  0  0  0  0  0  0  0
   -1.8486   14.7547   -2.1575 N   0  0  2  0  0  0  0  0  0  0  0  0
   -1.4869   13.6214   -4.4380 O   0  0  0  0  0  0  0  0  0  0  0  0
   -0.1749   12.8208   -2.4322 O   0  0  0  0  0  0  0  0  0  0  0  0
   -0.8109   13.8898   -3.1813 S   0  0  0  0  0  0  0  0  0  0  0  0
   -3.5151   14.8462    1.9701 H   0  0  0  0  0  0  0  0  0  0  0  0
    0.5982   14.6327    1.6179 H   0  0  0  0  0  0  0  0  0  0  0  0
   -4.6942   14.1344   -0.6655 H   0  0  0  0  0  0  0  0  0  0  0  0
   -4.3927   15.8808   -0.9155 H   0  0  0  0  0  0  0  0  0  0  0  0
    1.0472   13.9499   -5.2812 H   0  0  0  0  0  0  0  0  0  0  0  0
    2.2532   15.1942   -4.7340 H   0  0  0  0  0  0  0  0  0  0  0  0
    0.4642   16.9491   -4.7678 H   0  0  0  0  0  0  0  0  0  0  0  0
   -0.7460   15.7091   -5.3150 H   0  0  0  0  0  0  0  0  0  0  0  0
   -3.5645   13.5510   -2.6391 H   0  0  0  0  0  0  0  0  0  0  0  0
   -3.7149   15.2775   -3.0640 H   0  0  0  0  0  0  0  0  0  0  0  0
    0.8889   15.6330   -2.6515 H   0  0  0  0  0  0  0  0  0  0  0  0
  1  3  1  0  0  0  0
  1 10  2  0  0  0  0
  2 10  1  0  0  0  0
  2 11  2  0  0  0  0
  3  4  2  0  0  0  0
  3  5  1  0  0  0  0
  4 11  1  0  0  0  0
  4 12  1  0  0  0  0
  5  8  1  0  0  0  0
  6  7  1  0  0  0  0
  6  9  1  0  0  0  0
  7  9  1  0  0  0  0
  8 12  1  0  0  0  0
  9 15  1  0  0  0  0
 12 15  1  0  0  0  0
 13 15  2  0  0  0  0
 14 15  2  0  0  0  0
  1 16  1  0  0  0  0
  2 17  1  0  0  0  0
  5 18  1  0  0  0  0
  5 19  1  0  0  0  0
  6 20  1  0  0  0  0
  6 21  1  0  0  0  0
  7 22  1  0  0  0  0
  7 23  1  0  0  0  0
  8 24  1  0  0  0  0
  8 25  1  0  0  0  0
  9 26  1  0  0  0  0
M  END
> <HYBRID receptor title>
5S18(A) > WOY(A-201)

> <HYBRID receptor filename>
5s18.oedu

> <HYBRID Chemgauss4 score>
-7.387169

> <HYBRID receptor title>
5S18(A) > WOY(A-201)

> <HYBRID receptor filename>
5s18.oedu

> <Dock Type>
Hybrid

$$$$
MOL0099_1
  -OEChem-06022418243D

 14 15  0     0  0  0  0  0  0999 V2000
    0.1723   14.6967   -0.1925 C   0  0  0  0  0  0  0  0  0  0  0  0
   -0.9659   14.8181   -0.9901 C   0  0  0  0  0  0  0  0  0  0  0  0
    0.0281   14.6912    1.1914 C   0  0  0  0  0  0  0  0  0  0  0  0
   -4.2401   15.1171    0.2570 C   0  0  0  0  0  0  0  0  0  0  0  0
   -2.1990   14.9282   -0.3349 C   0  0  0  0  0  0  0  0  0  0  0  0
   -2.1980   14.9083    1.0530 C   0  0  0  0  0  0  0  0  0  0  0  0
   -1.1394   14.7944    1.8720 N   0  0  0  0  0  0  0  0  0  0  0  0
   -3.4792   15.0588   -0.8155 N   0  0  0  0  0  0  0  0  0  0  0  0
   -3.5105   15.0302    1.4123 N   0  0  0  0  0  0  0  0  0  0  0  0
    1.1542   14.6081   -0.6452 H   0  0  0  0  0  0  0  0  0  0  0  0
   -0.8927   14.8263   -2.0720 H   0  0  0  0  0  0  0  0  0  0  0  0
    0.9073   14.5972    1.8237 H   0  0  0  0  0  0  0  0  0  0  0  0
   -5.3157   15.2209    0.2672 H   0  0  0  0  0  0  0  0  0  0  0  0
   -3.8753   15.0521    2.3552 H   0  0  0  0  0  0  0  0  0  0  0  0
  1  2  2  0  0  0  0
  1  3  1  0  0  0  0
  2  5  1  0  0  0  0
  3  7  2  0  0  0  0
  4  8  2  0  0  0  0
  4  9  1  0  0  0  0
  5  6  2  0  0  0  0
  5  8  1  0  0  0  0
  6  7  1  0  0  0  0
  6  9  1  0  0  0  0
  1 10  1  0  0  0  0
  2 11  1  0  0  0  0
  3 12  1  0  0  0  0
  4 13  1  0  0  0  0
  9 14  1  0  0  0  0
M  END
> <HYBRID receptor title>
5S18(A) > WOY(A-201)

> <HYBRID receptor filename>
5s18.oedu

> <HYBRID Chemgauss4 score>
-7.373892

> <HYBRID receptor title>
5S18(A) > WOY(A-201)

> <HYBRID receptor filename>
5s18.oedu

> <Dock Type>
Hybrid

$$$$
MOL0214_6
  -OEChem-06022418243D

 31 33  0     1  0  0  0  0  0999 V2000
   -0.7014   14.8791   -0.7907 C   0  0  0  0  0  0  0  0  0  0  0  0
    0.2879   14.9336    1.2691 C   0  0  0  0  0  0  0  0  0  0  0  0
   -1.9266   15.0394   -0.1959 C   0  0  0  0  0  0  0  0  0  0  0  0
   -1.9614   15.1580    1.1862 C   0  0  0  0  0  0  0  0  0  0  0  0
   -5.4832   12.4933   -3.4950 C   0  0  0  0  0  0  0  0  0  0  0  0
   -6.3078   12.7875   -2.2401 C   0  0  0  0  0  0  0  0  0  0  0  0
   -4.8239   13.8155   -3.8835 C   0  0  0  0  0  0  0  0  0  0  0  0
   -6.1002   14.2709   -1.9394 C   0  0  0  0  0  0  0  0  0  0  0  0
   -4.1630   15.0615    0.5112 C   0  0  0  0  0  0  0  0  0  0  0  0
   -3.2970   15.1870   -0.7692 C   0  0  2  0  0  0  0  0  0  0  0  0
   -4.7624   14.6199   -2.5873 C   0  0  0  0  0  0  0  0  0  0  0  0
    0.4377   14.8148   -0.0713 N   0  0  0  0  0  0  0  0  0  0  0  0
   -0.8617   15.1087    1.9559 N   0  0  0  0  0  0  0  0  0  0  0  0
   -3.2805   15.3397    1.6329 N   0  0  0  0  0  0  0  0  0  0  0  0
   -3.6488   14.1755   -1.7523 N   0  0  0  0  0  0  0  0  0  0  0  0
   -0.5855   14.8017   -1.8649 H   0  0  0  0  0  0  0  0  0  0  0  0
    1.1962   14.8844    1.8579 H   0  0  0  0  0  0  0  0  0  0  0  0
   -4.7362   11.7129   -3.3197 H   0  0  0  0  0  0  0  0  0  0  0  0
   -6.1418   12.1459   -4.2990 H   0  0  0  0  0  0  0  0  0  0  0  0
   -7.3665   12.5823   -2.4342 H   0  0  0  0  0  0  0  0  0  0  0  0
   -6.0010   12.1637   -1.3951 H   0  0  0  0  0  0  0  0  0  0  0  0
   -3.8124   13.6184   -4.2742 H   0  0  0  0  0  0  0  0  0  0  0  0
   -5.3810   14.3362   -4.6756 H   0  0  0  0  0  0  0  0  0  0  0  0
   -6.9257   14.8885   -2.3217 H   0  0  0  0  0  0  0  0  0  0  0  0
   -6.0617   14.4203   -0.8481 H   0  0  0  0  0  0  0  0  0  0  0  0
   -5.0117   15.7533    0.4877 H   0  0  0  0  0  0  0  0  0  0  0  0
   -4.5653   14.0466    0.6274 H   0  0  0  0  0  0  0  0  0  0  0  0
   -3.4042   16.1920   -1.1947 H   0  0  0  0  0  0  0  0  0  0  0  0
   -4.6863   15.6652   -2.7831 H   0  0  0  0  0  0  0  0  0  0  0  0
   -3.5476   15.3665    2.6048 H   0  0  0  0  0  0  0  0  0  0  0  0
   -2.8410   13.9860   -2.3467 H   0  0  0  0  0  0  0  0  0  0  0  0
  1  3  1  0  0  0  0
  1 12  2  0  0  0  0
  2 12  1  0  0  0  0
  2 13  2  0  0  0  0
  3  4  2  0  0  0  0
  3 10  1  0  0  0  0
  4 13  1  0  0  0  0
  4 14  1  0  0  0  0
  5  6  1  0  0  0  0
  5  7  1  0  0  0  0
  6  8  1  0  0  0  0
  7 11  1  0  0  0  0
  8 11  1  0  0  0  0
  9 10  1  0  0  0  0
  9 14  1  0  0  0  0
 10 15  1  0  0  0  0
 11 15  1  0  0  0  0
  1 16  1  0  0  0  0
  2 17  1  0  0  0  0
  5 18  1  0  0  0  0
  5 19  1  0  0  0  0
  6 20  1  0  0  0  0
  6 21  1  0  0  0  0
  7 22  1  0  0  0  0
  7 23  1  0  0  0  0
  8 24  1  0  0  0  0
  8 25  1  0  0  0  0
  9 26  1  0  0  0  0
  9 27  1  0  0  0  0
 10 28  1  0  0  0  0
 11 29  1  0  0  0  0
 14 30  1  0  0  0  0
 15 31  1  0  0  0  0
M  END
> <HYBRID receptor title>
5S18(A) > WOY(A-201)

> <HYBRID receptor filename>
5s18.oedu

> <HYBRID Chemgauss4 score>
-7.369374

> <HYBRID receptor title>
5S18(A) > WOY(A-201)

> <HYBRID receptor filename>
5s18.oedu

> <Dock Type>
Hybrid

$$$$
MOL0148_3
  -OEChem-06022418243D

 35 37  0     1  0  0  0  0  0999 V2000
   -3.1380   15.2455    1.4472 C   0  0  0  0  0  0  0  0  0  0  0  0
   -1.0493   14.6843    0.7118 C   0  0  0  0  0  0  0  0  0  0  0  0
   -3.6117   15.1033    0.1695 C   0  0  0  0  0  0  0  0  0  0  0  0
   -2.7179   14.7236   -0.8223 C   0  0  0  0  0  0  0  0  0  0  0  0
   -4.9833   15.2527   -0.3837 C   0  0  0  0  0  0  0  0  0  0  0  0
   -1.7247   10.7257   -5.1119 C   0  0  0  0  0  0  0  0  0  0  0  0
   -2.5633   10.7431   -3.8377 C   0  0  0  0  0  0  0  0  0  0  0  0
   -0.6354   11.7932   -5.0813 C   0  0  0  0  0  0  0  0  0  0  0  0
   -3.1446   12.1285   -3.5648 C   0  0  0  0  0  0  0  0  0  0  0  0
   -1.2134   13.1804   -4.8103 C   0  0  0  0  0  0  0  0  0  0  0  0
   -4.6870   15.2431   -1.8972 C   0  0  0  0  0  0  0  0  0  0  0  0
   -2.0506   13.2040   -3.5243 C   0  0  0  0  0  0  0  0  0  0  0  0
   -2.6613   14.5867   -3.3036 C   0  0  0  0  0  0  0  0  0  0  0  0
   -1.8403   15.0424    1.7505 N   0  0  0  0  0  0  0  0  0  0  0  0
   -1.4132   14.5079   -0.5772 N   0  0  0  0  0  0  0  0  0  0  0  0
   -3.3822   14.6073   -2.0578 N   0  0  1  0  0  0  0  0  0  0  0  0
   -3.7793   15.5276    2.2732 H   0  0  0  0  0  0  0  0  0  0  0  0
   -0.0027   14.5228    0.9412 H   0  0  0  0  0  0  0  0  0  0  0  0
   -5.6389   14.4246   -0.1000 H   0  0  0  0  0  0  0  0  0  0  0  0
   -5.4179   16.2076   -0.0714 H   0  0  0  0  0  0  0  0  0  0  0  0
   -1.2688    9.7374   -5.2398 H   0  0  0  0  0  0  0  0  0  0  0  0
   -2.3754   10.8937   -5.9789 H   0  0  0  0  0  0  0  0  0  0  0  0
   -3.3756   10.0123   -3.9220 H   0  0  0  0  0  0  0  0  0  0  0  0
   -1.9427   10.4341   -2.9876 H   0  0  0  0  0  0  0  0  0  0  0  0
    0.0975   11.5453   -4.3036 H   0  0  0  0  0  0  0  0  0  0  0  0
   -0.0978   11.7978   -6.0364 H   0  0  0  0  0  0  0  0  0  0  0  0
   -3.8781   12.3711   -4.3445 H   0  0  0  0  0  0  0  0  0  0  0  0
   -3.6883   12.1116   -2.6126 H   0  0  0  0  0  0  0  0  0  0  0  0
   -0.3941   13.9057   -4.7371 H   0  0  0  0  0  0  0  0  0  0  0  0
   -1.8318   13.4857   -5.6642 H   0  0  0  0  0  0  0  0  0  0  0  0
   -5.4503   14.6531   -2.4194 H   0  0  0  0  0  0  0  0  0  0  0  0
   -4.6995   16.2559   -2.3109 H   0  0  0  0  0  0  0  0  0  0  0  0
   -1.3865   12.9894   -2.6764 H   0  0  0  0  0  0  0  0  0  0  0  0
   -1.8410   15.3021   -3.2844 H   0  0  0  0  0  0  0  0  0  0  0  0
   -3.3324   14.7797   -4.1387 H   0  0  0  0  0  0  0  0  0  0  0  0
  1  3  1  0  0  0  0
  1 14  2  0  0  0  0
  2 14  1  0  0  0  0
  2 15  2  0  0  0  0
  3  4  2  0  0  0  0
  3  5  1  0  0  0  0
  4 15  1  0  0  0  0
  4 16  1  0  0  0  0
  5 11  1  0  0  0  0
  6  7  1  0  0  0  0
  6  8  1  0  0  0  0
  7  9  1  0  0  0  0
  8 10  1  0  0  0  0
  9 12  1  0  0  0  0
 10 12  1  0  0  0  0
 11 16  1  0  0  0  0
 12 13  1  0  0  0  0
 13 16  1  0  0  0  0
  1 17  1  0  0  0  0
  2 18  1  0  0  0  0
  5 19  1  0  0  0  0
  5 20  1  0  0  0  0
  6 21  1  0  0  0  0
  6 22  1  0  0  0  0
  7 23  1  0  0  0  0
  7 24  1  0  0  0  0
  8 25  1  0  0  0  0
  8 26  1  0  0  0  0
  9 27  1  0  0  0  0
  9 28  1  0  0  0  0
 10 29  1  0  0  0  0
 10 30  1  0  0  0  0
 11 31  1  0  0  0  0
 11 32  1  0  0  0  0
 12 33  1  0  0  0  0
 13 34  1  0  0  0  0
 13 35  1  0  0  0  0
M  END
> <HYBRID receptor title>
5S18(A) > WOY(A-201)

> <HYBRID receptor filename>
5s18.oedu

> <HYBRID Chemgauss4 score>
-7.361524

> <HYBRID receptor title>
5S18(A) > WOY(A-201)

> <HYBRID receptor filename>
5s18.oedu

> <Dock Type>
Hybrid

$$$$
MOL0094_2
  -OEChem-06022418243D

 28 30  0     0  0  0  0  0  0999 V2000
    2.3057   13.9042   -2.5103 C   0  0  0  0  0  0  0  0  0  0  0  0
    1.6088   12.7268   -2.2390 C   0  0  0  0  0  0  0  0  0  0  0  0
    1.6224   15.0276   -2.9761 C   0  0  0  0  0  0  0  0  0  0  0  0
    0.2287   12.6727   -2.4336 C   0  0  0  0  0  0  0  0  0  0  0  0
    0.2423   14.9734   -3.1707 C   0  0  0  0  0  0  0  0  0  0  0  0
   -2.9010   15.0474    1.3921 C   0  0  0  0  0  0  0  0  0  0  0  0
   -0.6827   14.8944    0.8603 C   0  0  0  0  0  0  0  0  0  0  0  0
   -0.4546   13.7960   -2.8994 C   0  0  0  0  0  0  0  0  0  0  0  0
   -3.2283   14.6884    0.1096 C   0  0  0  0  0  0  0  0  0  0  0  0
   -2.1856   14.4424   -0.7618 C   0  0  0  0  0  0  0  0  0  0  0  0
   -1.9093   13.7388   -3.1045 C   0  0  0  0  0  0  0  0  0  0  0  0
   -4.5627   14.4965   -0.5180 C   0  0  0  0  0  0  0  0  0  0  0  0
   -4.1786   14.1352   -1.9600 C   0  0  0  0  0  0  0  0  0  0  0  0
   -1.6196   15.1614    1.8004 N   0  0  0  0  0  0  0  0  0  0  0  0
   -0.8892   14.5328   -0.4235 N   0  0  0  0  0  0  0  0  0  0  0  0
   -2.7019   14.0895   -2.0243 N   0  0  0  0  0  0  0  0  0  0  0  0
   -2.2988   13.3980   -4.2189 O   0  0  0  0  0  0  0  0  0  0  0  0
    3.3803   13.9464   -2.3589 H   0  0  0  0  0  0  0  0  0  0  0  0
    2.1411   11.8522   -1.8766 H   0  0  0  0  0  0  0  0  0  0  0  0
    2.1650   15.9445   -3.1871 H   0  0  0  0  0  0  0  0  0  0  0  0
   -0.3045   11.7500   -2.2190 H   0  0  0  0  0  0  0  0  0  0  0  0
   -0.2798   15.8548   -3.5342 H   0  0  0  0  0  0  0  0  0  0  0  0
   -3.6550   15.2551    2.1419 H   0  0  0  0  0  0  0  0  0  0  0  0
    0.3503   14.9809    1.1755 H   0  0  0  0  0  0  0  0  0  0  0  0
   -5.1068   13.6779   -0.0372 H   0  0  0  0  0  0  0  0  0  0  0  0
   -5.1540   15.4162   -0.4835 H   0  0  0  0  0  0  0  0  0  0  0  0
   -4.5836   13.1612   -2.2568 H   0  0  0  0  0  0  0  0  0  0  0  0
   -4.5383   14.8855   -2.6736 H   0  0  0  0  0  0  0  0  0  0  0  0
  1  2  1  0  0  0  0
  1  3  2  0  0  0  0
  2  4  2  0  0  0  0
  3  5  1  0  0  0  0
  4  8  1  0  0  0  0
  5  8  2  0  0  0  0
  6  9  1  0  0  0  0
  6 14  2  0  0  0  0
  7 14  1  0  0  0  0
  7 15  2  0  0  0  0
  8 11  1  0  0  0  0
  9 10  2  0  0  0  0
  9 12  1  0  0  0  0
 10 15  1  0  0  0  0
 10 16  1  0  0  0  0
 11 16  1  0  0  0  0
 11 17  2  0  0  0  0
 12 13  1  0  0  0  0
 13 16  1  0  0  0  0
  1 18  1  0  0  0  0
  2 19  1  0  0  0  0
  3 20  1  0  0  0  0
  4 21  1  0  0  0  0
  5 22  1  0  0  0  0
  6 23  1  0  0  0  0
  7 24  1  0  0  0  0
 12 25  1  0  0  0  0
 12 26  1  0  0  0  0
 13 27  1  0  0  0  0
 13 28  1  0  0  0  0
M  END
> <HYBRID receptor title>
5S18(A) > WOY(A-201)

> <HYBRID receptor filename>
5s18.oedu

> <HYBRID Chemgauss4 score>
-7.333735

> <HYBRID receptor title>
5S18(A) > WOY(A-201)

> <HYBRID receptor filename>
5s18.oedu

> <Dock Type>
Hybrid

$$$$
MOL0055_5
  -OEChem-06022418243D

 25 26  0     1  0  0  0  0  0999 V2000
   -2.4275   15.1411    1.3154 C   0  0  0  0  0  0  0  0  0  0  0  0
   -0.2101   14.7030    0.9848 C   0  0  0  0  0  0  0  0  0  0  0  0
   -2.6573   14.9146   -0.0161 C   0  0  0  0  0  0  0  0  0  0  0  0
   -1.5753   14.5858   -0.8212 C   0  0  0  0  0  0  0  0  0  0  0  0
   -3.9078   14.9907   -0.8160 C   0  0  0  0  0  0  0  0  0  0  0  0
   -3.4523   14.3207   -2.1284 C   0  0  0  0  0  0  0  0  0  0  0  0
    0.6296   13.9540   -4.8844 C   0  0  0  0  0  0  0  0  0  0  0  0
   -0.2241   14.6673   -3.8456 C   0  0  0  0  0  0  0  0  0  0  0  0
   -1.1769   13.7257   -3.1190 C   0  0  0  0  0  0  0  0  0  0  0  0
   -1.1949   15.0371    1.8515 N   0  0  0  0  0  0  0  0  0  0  0  0
   -0.3247   14.4684   -0.3408 N   0  0  0  0  0  0  0  0  0  0  0  0
   -1.9950   14.4113   -2.1532 N   0  0  2  0  0  0  0  0  0  0  0  0
   -3.2207   15.4144    2.0004 H   0  0  0  0  0  0  0  0  0  0  0  0
    0.7858   14.6159    1.4028 H   0  0  0  0  0  0  0  0  0  0  0  0
   -4.7322   14.4415   -0.3527 H   0  0  0  0  0  0  0  0  0  0  0  0
   -4.1906   16.0350   -0.9821 H   0  0  0  0  0  0  0  0  0  0  0  0
   -3.7567   13.2658   -2.1322 H   0  0  0  0  0  0  0  0  0  0  0  0
   -3.9036   14.8045   -3.0012 H   0  0  0  0  0  0  0  0  0  0  0  0
    1.2329   13.1661   -4.4222 H   0  0  0  0  0  0  0  0  0  0  0  0
   -0.0093   13.4899   -5.6426 H   0  0  0  0  0  0  0  0  0  0  0  0
    1.3031   14.6501   -5.3937 H   0  0  0  0  0  0  0  0  0  0  0  0
   -0.8101   15.4454   -4.3483 H   0  0  0  0  0  0  0  0  0  0  0  0
    0.4313   15.1698   -3.1243 H   0  0  0  0  0  0  0  0  0  0  0  0
   -1.8561   13.2537   -3.8360 H   0  0  0  0  0  0  0  0  0  0  0  0
   -0.6313   12.9347   -2.5950 H   0  0  0  0  0  0  0  0  0  0  0  0
  1  3  1  0  0  0  0
  1 10  2  0  0  0  0
  2 10  1  0  0  0  0
  2 11  2  0  0  0  0
  3  4  2  0  0  0  0
  3  5  1  0  0  0  0
  4 11  1  0  0  0  0
  4 12  1  0  0  0  0
  5  6  1  0  0  0  0
  6 12  1  0  0  0  0
  7  8  1  0  0  0  0
  8  9  1  0  0  0  0
  9 12  1  0  0  0  0
  1 13  1  0  0  0  0
  2 14  1  0  0  0  0
  5 15  1  0  0  0  0
  5 16  1  0  0  0  0
  6 17  1  0  0  0  0
  6 18  1  0  0  0  0
  7 19  1  0  0  0  0
  7 20  1  0  0  0  0
  7 21  1  0  0  0  0
  8 22  1  0  0  0  0
  8 23  1  0  0  0  0
  9 24  1  0  0  0  0
  9 25  1  0  0  0  0
M  END
> <HYBRID receptor title>
5S18(A) > WOY(A-201)

> <HYBRID receptor filename>
5s18.oedu

> <HYBRID Chemgauss4 score>
-7.265091

> <HYBRID receptor title>
5S18(A) > WOY(A-201)

> <HYBRID receptor filename>
5s18.oedu

> <Dock Type>
Hybrid

$$$$
MOL0230_8
  -OEChem-06022418243D

 40 42  0     1  0  0  0  0  0999 V2000
   -1.2264   15.0392   -0.8308 C   0  0  0  0  0  0  0  0  0  0  0  0
    0.0381   14.8464    1.0628 C   0  0  0  0  0  0  0  0  0  0  0  0
   -2.3404   15.2360   -0.0558 C   0  0  0  0  0  0  0  0  0  0  0  0
   -2.1760   15.2322    1.3211 C   0  0  0  0  0  0  0  0  0  0  0  0
   -3.0426   10.0358   -4.6126 C   0  0  0  0  0  0  0  0  0  0  0  0
   -2.0911   11.0955   -4.0690 C   0  0  0  0  0  0  0  0  0  0  0  0
   -4.4521   10.2602   -4.0771 C   0  0  0  0  0  0  0  0  0  0  0  0
   -2.6315   12.5055   -4.3125 C   0  0  0  0  0  0  0  0  0  0  0  0
   -4.9177   11.6966   -4.3201 C   0  0  0  0  0  0  0  0  0  0  0  0
   -4.4525   15.3728    0.9655 C   0  0  0  0  0  0  0  0  0  0  0  0
   -3.7626   15.5165   -0.4165 C   0  0  2  0  0  0  0  0  0  0  0  0
   -4.3430   14.5742   -1.4595 C   0  0  0  0  0  0  0  0  0  0  0  0
   -3.9405   14.9922   -2.8757 C   0  0  0  0  0  0  0  0  0  0  0  0
   -4.4587   14.0306   -3.9400 C   0  0  0  0  0  0  0  0  0  0  0  0
   -0.0080   14.8338   -0.2901 N   0  0  0  0  0  0  0  0  0  0  0  0
   -0.9885   15.0394    1.9186 N   0  0  0  0  0  0  0  0  0  0  0  0
   -3.4013   15.4560    1.9660 N   0  0  0  0  0  0  0  0  0  0  0  0
   -3.9759   12.6644   -3.7404 N   0  0  0  0  0  0  0  0  0  0  0  0
   -1.2666   15.0440   -1.9133 H   0  0  0  0  0  0  0  0  0  0  0  0
    1.0117   14.6838    1.5097 H   0  0  0  0  0  0  0  0  0  0  0  0
   -3.0555   10.0829   -5.7085 H   0  0  0  0  0  0  0  0  0  0  0  0
   -2.6898    9.0359   -4.3366 H   0  0  0  0  0  0  0  0  0  0  0  0
   -1.9450   10.9390   -2.9926 H   0  0  0  0  0  0  0  0  0  0  0  0
   -1.1090   10.9885   -4.5433 H   0  0  0  0  0  0  0  0  0  0  0  0
   -5.1455    9.5602   -4.5571 H   0  0  0  0  0  0  0  0  0  0  0  0
   -4.4737   10.0442   -3.0012 H   0  0  0  0  0  0  0  0  0  0  0  0
   -1.9428   13.2200   -3.8454 H   0  0  0  0  0  0  0  0  0  0  0  0
   -2.6380   12.7158   -5.3904 H   0  0  0  0  0  0  0  0  0  0  0  0
   -5.0387   11.8665   -5.3982 H   0  0  0  0  0  0  0  0  0  0  0  0
   -5.9053   11.8178   -3.8584 H   0  0  0  0  0  0  0  0  0  0  0  0
   -5.1996   16.1593    1.1157 H   0  0  0  0  0  0  0  0  0  0  0  0
   -4.9607   14.4055    1.0606 H   0  0  0  0  0  0  0  0  0  0  0  0
   -3.8407   16.5557   -0.7593 H   0  0  0  0  0  0  0  0  0  0  0  0
   -3.9913   13.5556   -1.2583 H   0  0  0  0  0  0  0  0  0  0  0  0
   -5.4344   14.5664   -1.3622 H   0  0  0  0  0  0  0  0  0  0  0  0
   -4.3101   16.0048   -3.0790 H   0  0  0  0  0  0  0  0  0  0  0  0
   -2.8463   15.0284   -2.9418 H   0  0  0  0  0  0  0  0  0  0  0  0
   -4.1591   14.3492   -4.9433 H   0  0  0  0  0  0  0  0  0  0  0  0
   -5.5521   13.9908   -3.9075 H   0  0  0  0  0  0  0  0  0  0  0  0
   -3.5300   15.4228    2.9655 H   0  0  0  0  0  0  0  0  0  0  0  0
  1  3  1  0  0  0  0
  1 15  2  0  0  0  0
  2 15  1  0  0  0  0
  2 16  2  0  0  0  0
  3  4  2  0  0  0  0
  3 11  1  0  0  0  0
  4 16  1  0  0  0  0
  4 17  1  0  0  0  0
  5  6  1  0  0  0  0
  5  7  1  0  0  0  0
  6  8  1  0  0  0  0
  7  9  1  0  0  0  0
  8 18  1  0  0  0  0
  9 18  1  0  0  0  0
 10 11  1  0  0  0  0
 10 17  1  0  0  0  0
 11 12  1  0  0  0  0
 12 13  1  0  0  0  0
 13 14  1  0  0  0  0
 14 18  1  0  0  0  0
  1 19  1  0  0  0  0
  2 20  1  0  0  0  0
  5 21  1  0  0  0  0
  5 22  1  0  0  0  0
  6 23  1  0  0  0  0
  6 24  1  0  0  0  0
  7 25  1  0  0  0  0
  7 26  1  0  0  0  0
  8 27  1  0  0  0  0
  8 28  1  0  0  0  0
  9 29  1  0  0  0  0
  9 30  1  0  0  0  0
 10 31  1  0  0  0  0
 10 32  1  0  0  0  0
 11 33  1  0  0  0  0
 12 34  1  0  0  0  0
 12 35  1  0  0  0  0
 13 36  1  0  0  0  0
 13 37  1  0  0  0  0
 14 38  1  0  0  0  0
 14 39  1  0  0  0  0
 17 40  1  0  0  0  0
M  END
> <HYBRID receptor title>
5S18(A) > WOY(A-201)

> <HYBRID receptor filename>
5s18.oedu

> <HYBRID Chemgauss4 score>
-7.251075

> <HYBRID receptor title>
5S18(A) > WOY(A-201)

> <HYBRID receptor filename>
5s18.oedu

> <Dock Type>
Hybrid

$$$$
MOL0038_1
  -OEChem-06022418243D

 13 14  0     0  0  0  0  0  0999 V2000
   -2.2252   14.5868   -1.1806 C   0  0  0  0  0  0  0  0  0  0  0  0
   -4.6935   14.9254   -0.3744 C   0  0  0  0  0  0  0  0  0  0  0  0
   -0.8246   14.7060    0.6593 C   0  0  0  0  0  0  0  0  0  0  0  0
   -3.2927   14.8033   -0.3157 C   0  0  0  0  0  0  0  0  0  0  0  0
   -2.9936   14.9570    1.0266 C   0  0  0  0  0  0  0  0  0  0  0  0
   -0.9686   14.5385   -0.6769 N   0  0  0  0  0  0  0  0  0  0  0  0
   -5.2439   15.1390    0.8257 N   0  0  0  0  0  0  0  0  0  0  0  0
   -1.7769   14.9205    1.5927 N   0  0  0  0  0  0  0  0  0  0  0  0
   -4.1859   15.1530    1.6577 N   0  0  0  0  0  0  0  0  0  0  0  0
   -2.3287   14.4502   -2.2495 H   0  0  0  0  0  0  0  0  0  0  0  0
   -5.3396   14.8678   -1.2389 H   0  0  0  0  0  0  0  0  0  0  0  0
    0.1942   14.6608    1.0290 H   0  0  0  0  0  0  0  0  0  0  0  0
   -4.3520   15.3027    2.6451 H   0  0  0  0  0  0  0  0  0  0  0  0
  1  4  1  0  0  0  0
  1  6  2  0  0  0  0
  2  4  1  0  0  0  0
  2  7  2  0  0  0  0
  3  6  1  0  0  0  0
  3  8  2  0  0  0  0
  4  5  2  0  0  0  0
  5  8  1  0  0  0  0
  5  9  1  0  0  0  0
  7  9  1  0  0  0  0
  1 10  1  0  0  0  0
  2 11  1  0  0  0  0
  3 12  1  0  0  0  0
  9 13  1  0  0  0  0
M  END
> <HYBRID receptor title>
5S18(A) > WOY(A-201)

> <HYBRID receptor filename>
5s18.oedu

> <HYBRID Chemgauss4 score>
-7.206416

> <HYBRID receptor title>
5S18(A) > WOY(A-201)

> <HYBRID receptor filename>
5s18.oedu

> <Dock Type>
Hybrid

$$$$
MOL0221_1
  -OEChem-06022418243D

 20 21  0     1  0  0  0  0  0999 V2000
   -1.5367   14.7520   -0.9970 C   0  0  0  0  0  0  0  0  0  0  0  0
   -0.1312   14.8499    0.8018 C   0  0  0  0  0  0  0  0  0  0  0  0
   -2.6120   14.8601   -0.1517 C   0  0  0  0  0  0  0  0  0  0  0  0
   -2.3541   14.9779    1.2054 C   0  0  0  0  0  0  0  0  0  0  0  0
   -5.2630   14.0909   -2.4549 C   0  0  0  0  0  0  0  0  0  0  0  0
   -4.6115   13.8632   -1.3095 C   0  0  0  0  0  0  0  0  0  0  0  0
   -4.6556   14.8620    1.0168 C   0  0  0  0  0  0  0  0  0  0  0  0
   -4.0798   14.9394   -0.4231 C   0  0  1  0  0  0  0  0  0  0  0  0
   -0.2678   14.7376   -0.5402 N   0  0  0  0  0  0  0  0  0  0  0  0
   -1.1132   14.9751    1.7203 N   0  0  0  0  0  0  0  0  0  0  0  0
   -3.5484   15.1060    1.9270 N   0  0  0  0  0  0  0  0  0  0  0  0
   -1.6506   14.6787   -2.0718 H   0  0  0  0  0  0  0  0  0  0  0  0
    0.8835   14.8400    1.1820 H   0  0  0  0  0  0  0  0  0  0  0  0
   -5.6251   13.2631   -3.0547 H   0  0  0  0  0  0  0  0  0  0  0  0
   -5.4462   15.0980   -2.8133 H   0  0  0  0  0  0  0  0  0  0  0  0
   -4.4523   12.8363   -0.9926 H   0  0  0  0  0  0  0  0  0  0  0  0
   -5.4457   15.6071    1.1620 H   0  0  0  0  0  0  0  0  0  0  0  0
   -5.0846   13.8760    1.2348 H   0  0  0  0  0  0  0  0  0  0  0  0
   -4.3065   15.9207   -0.8565 H   0  0  0  0  0  0  0  0  0  0  0  0
   -3.6051   15.1473    2.9327 H   0  0  0  0  0  0  0  0  0  0  0  0
  1  3  1  0  0  0  0
  1  9  2  0  0  0  0
  2  9  1  0  0  0  0
  2 10  2  0  0  0  0
  3  4  2  0  0  0  0
  3  8  1  0  0  0  0
  4 10  1  0  0  0  0
  4 11  1  0  0  0  0
  5  6  2  0  0  0  0
  6  8  1  0  0  0  0
  7  8  1  0  0  0  0
  7 11  1  0  0  0  0
  1 12  1  0  0  0  0
  2 13  1  0  0  0  0
  5 14  1  0  0  0  0
  5 15  1  0  0  0  0
  6 16  1  0  0  0  0
  7 17  1  0  0  0  0
  7 18  1  0  0  0  0
  8 19  1  0  0  0  0
 11 20  1  0  0  0  0
M  END
> <HYBRID receptor title>
5S18(A) > WOY(A-201)

> <HYBRID receptor filename>
5s18.oedu

> <HYBRID Chemgauss4 score>
-7.184873

> <HYBRID receptor title>
5S18(A) > WOY(A-201)

> <HYBRID receptor filename>
5s18.oedu

> <Dock Type>
Hybrid

$$$$
MOL0175_2
  -OEChem-06022418243D

 20 21  0     0  0  0  0  0  0999 V2000
   -0.1657   14.9010    0.9327 C   0  0  0  0  0  0  0  0  0  0  0  0
   -2.5168   15.0437   -0.2894 C   0  0  0  0  0  0  0  0  0  0  0  0
   -2.3940   15.2630    1.0732 C   0  0  0  0  0  0  0  0  0  0  0  0
   -1.3828   14.7407   -0.9955 C   0  0  0  0  0  0  0  0  0  0  0  0
   -3.9366   15.1470   -0.7165 C   0  0  0  0  0  0  0  0  0  0  0  0
   -4.5960   15.7236    0.5552 C   0  0  0  0  0  0  0  0  0  0  0  0
   -0.7817   12.7314   -2.7602 C   0  0  0  0  0  0  0  0  0  0  0  0
   -1.2204   15.1980    1.7229 N   0  0  0  0  0  0  0  0  0  0  0  0
   -0.1746   14.6658   -0.4011 N   0  0  0  0  0  0  0  0  0  0  0  0
   -3.6456   15.5455    1.6401 N   0  0  0  0  0  0  0  0  0  0  0  0
   -1.4298   14.4178   -2.7436 S   0  0  0  0  0  0  0  0  0  0  0  0
    0.7996   14.8425    1.4216 H   0  0  0  0  0  0  0  0  0  0  0  0
   -4.0693   15.8240   -1.5652 H   0  0  0  0  0  0  0  0  0  0  0  0
   -4.3403   14.1567   -0.9508 H   0  0  0  0  0  0  0  0  0  0  0  0
   -4.7983   16.7932    0.4229 H   0  0  0  0  0  0  0  0  0  0  0  0
   -5.5466   15.2259    0.7718 H   0  0  0  0  0  0  0  0  0  0  0  0
   -0.7391   12.3595   -3.7869 H   0  0  0  0  0  0  0  0  0  0  0  0
   -1.4308   12.0786   -2.1714 H   0  0  0  0  0  0  0  0  0  0  0  0
    0.2237   12.7159   -2.3324 H   0  0  0  0  0  0  0  0  0  0  0  0
   -3.7881   15.8035    2.6041 H   0  0  0  0  0  0  0  0  0  0  0  0
  1  8  1  0  0  0  0
  1  9  2  0  0  0  0
  2  3  1  0  0  0  0
  2  4  2  0  0  0  0
  2  5  1  0  0  0  0
  3  8  2  0  0  0  0
  3 10  1  0  0  0  0
  4  9  1  0  0  0  0
  4 11  1  0  0  0  0
  5  6  1  0  0  0  0
  6 10  1  0  0  0  0
  7 11  1  0  0  0  0
  1 12  1  0  0  0  0
  5 13  1  0  0  0  0
  5 14  1  0  0  0  0
  6 15  1  0  0  0  0
  6 16  1  0  0  0  0
  7 17  1  0  0  0  0
  7 18  1  0  0  0  0
  7 19  1  0  0  0  0
 10 20  1  0  0  0  0
M  END
> <HYBRID receptor title>
5S18(A) > WOY(A-201)

> <HYBRID receptor filename>
5s18.oedu

> <HYBRID Chemgauss4 score>
-7.180438

> <HYBRID receptor title>
5S18(A) > WOY(A-201)

> <HYBRID receptor filename>
5s18.oedu

> <Dock Type>
Hybrid

$$$$
MOL0206_2
  -OEChem-06022418243D

 26 28  0     0  0  0  0  0  0999 V2000
    0.7450   13.3989   -5.1068 C   0  0  0  0  0  0  0  0  0  0  0  0
    1.2189   14.2150   -4.0797 C   0  0  0  0  0  0  0  0  0  0  0  0
   -0.5619   12.9132   -5.0651 C   0  0  0  0  0  0  0  0  0  0  0  0
    0.3858   14.5453   -3.0107 C   0  0  0  0  0  0  0  0  0  0  0  0
   -1.3949   13.2435   -3.9962 C   0  0  0  0  0  0  0  0  0  0  0  0
   -2.5430   15.2284    1.5175 C   0  0  0  0  0  0  0  0  0  0  0  0
   -0.2753   15.0603    1.3778 C   0  0  0  0  0  0  0  0  0  0  0  0
   -2.6367   14.9269    0.1821 C   0  0  0  0  0  0  0  0  0  0  0  0
   -0.9211   14.0595   -2.9690 C   0  0  0  0  0  0  0  0  0  0  0  0
   -1.4677   14.6825   -0.5233 C   0  0  0  0  0  0  0  0  0  0  0  0
   -3.8333   14.7595   -0.6732 C   0  0  0  0  0  0  0  0  0  0  0  0
   -3.1961   14.6695   -2.0699 C   0  0  0  0  0  0  0  0  0  0  0  0
   -1.3565   15.3068    2.1500 N   0  0  0  0  0  0  0  0  0  0  0  0
   -0.2588   14.7488    0.0635 N   0  0  0  0  0  0  0  0  0  0  0  0
   -1.7567   14.3906   -1.8973 N   0  0  0  0  0  0  0  0  0  0  0  0
    1.3939   13.1416   -5.9391 H   0  0  0  0  0  0  0  0  0  0  0  0
    2.2363   14.5930   -4.1122 H   0  0  0  0  0  0  0  0  0  0  0  0
   -0.9307   12.2776   -5.8651 H   0  0  0  0  0  0  0  0  0  0  0  0
    0.7647   15.1818   -2.2153 H   0  0  0  0  0  0  0  0  0  0  0  0
   -2.4116   12.8592   -3.9745 H   0  0  0  0  0  0  0  0  0  0  0  0
   -3.4182   15.4147    2.1283 H   0  0  0  0  0  0  0  0  0  0  0  0
    0.6886   15.1191    1.8692 H   0  0  0  0  0  0  0  0  0  0  0  0
   -4.3573   13.8325   -0.4197 H   0  0  0  0  0  0  0  0  0  0  0  0
   -4.5160   15.6109   -0.6006 H   0  0  0  0  0  0  0  0  0  0  0  0
   -3.6830   13.8952   -2.6742 H   0  0  0  0  0  0  0  0  0  0  0  0
   -3.3203   15.6273   -2.5930 H   0  0  0  0  0  0  0  0  0  0  0  0
  1  2  1  0  0  0  0
  1  3  2  0  0  0  0
  2  4  2  0  0  0  0
  3  5  1  0  0  0  0
  4  9  1  0  0  0  0
  5  9  2  0  0  0  0
  6  8  1  0  0  0  0
  6 13  2  0  0  0  0
  7 13  1  0  0  0  0
  7 14  2  0  0  0  0
  8 10  2  0  0  0  0
  8 11  1  0  0  0  0
  9 15  1  0  0  0  0
 10 14  1  0  0  0  0
 10 15  1  0  0  0  0
 11 12  1  0  0  0  0
 12 15  1  0  0  0  0
  1 16  1  0  0  0  0
  2 17  1  0  0  0  0
  3 18  1  0  0  0  0
  4 19  1  0  0  0  0
  5 20  1  0  0  0  0
  6 21  1  0  0  0  0
  7 22  1  0  0  0  0
 11 23  1  0  0  0  0
 11 24  1  0  0  0  0
 12 25  1  0  0  0  0
 12 26  1  0  0  0  0
M  END
> <HYBRID receptor title>
5S18(A) > WOY(A-201)

> <HYBRID receptor filename>
5s18.oedu

> <HYBRID Chemgauss4 score>
-7.174232

> <HYBRID receptor title>
5S18(A) > WOY(A-201)

> <HYBRID receptor filename>
5s18.oedu

> <Dock Type>
Hybrid

$$$$
MOL0042_1
  -OEChem-06022418243D

 26 28  0     1  0  0  0  0  0999 V2000
   -2.4476   14.7350    1.5719 C   0  0  0  0  0  0  0  0  0  0  0  0
   -0.1724   14.8340    1.3927 C   0  0  0  0  0  0  0  0  0  0  0  0
   -2.5387   14.6617    0.2068 C   0  0  0  0  0  0  0  0  0  0  0  0
   -1.3633   14.6930   -0.5310 C   0  0  0  0  0  0  0  0  0  0  0  0
   -3.7230   14.5849   -0.6881 C   0  0  0  0  0  0  0  0  0  0  0  0
    0.3330   15.0886   -4.5851 C   0  0  0  0  0  0  0  0  0  0  0  0
    0.4059   15.3997   -3.0747 C   0  0  0  0  0  0  0  0  0  0  0  0
   -1.0897   14.5467   -4.3289 C   0  0  0  0  0  0  0  0  0  0  0  0
   -3.0493   14.2268   -2.0285 C   0  0  0  0  0  0  0  0  0  0  0  0
   -0.6421   14.2830   -2.8742 C   0  0  0  0  0  0  0  0  0  0  0  0
   -1.2582   14.8196    2.2011 N   0  0  0  0  0  0  0  0  0  0  0  0
   -0.1501   14.7766    0.0431 N   0  0  0  0  0  0  0  0  0  0  0  0
   -1.6508   14.6294   -1.9073 N   0  0  2  0  0  0  0  0  0  0  0  0
   -3.3225   14.7288    2.2104 H   0  0  0  0  0  0  0  0  0  0  0  0
    0.7901   14.9006    1.8859 H   0  0  0  0  0  0  0  0  0  0  0  0
   -4.4294   13.8102   -0.3774 H   0  0  0  0  0  0  0  0  0  0  0  0
   -4.2227   15.5573   -0.7435 H   0  0  0  0  0  0  0  0  0  0  0  0
    0.4017   15.9506   -5.2530 H   0  0  0  0  0  0  0  0  0  0  0  0
    1.0448   14.3221   -4.9127 H   0  0  0  0  0  0  0  0  0  0  0  0
    1.3789   15.2265   -2.6073 H   0  0  0  0  0  0  0  0  0  0  0  0
    0.0647   16.4107   -2.8208 H   0  0  0  0  0  0  0  0  0  0  0  0
   -1.8729   15.3057   -4.4459 H   0  0  0  0  0  0  0  0  0  0  0  0
   -1.3651   13.6614   -4.9083 H   0  0  0  0  0  0  0  0  0  0  0  0
   -3.1064   13.1438   -2.1989 H   0  0  0  0  0  0  0  0  0  0  0  0
   -3.5466   14.7269   -2.8667 H   0  0  0  0  0  0  0  0  0  0  0  0
   -0.2173   13.2877   -2.7037 H   0  0  0  0  0  0  0  0  0  0  0  0
  1  3  1  0  0  0  0
  1 11  2  0  0  0  0
  2 11  1  0  0  0  0
  2 12  2  0  0  0  0
  3  4  2  0  0  0  0
  3  5  1  0  0  0  0
  4 12  1  0  0  0  0
  4 13  1  0  0  0  0
  5  9  1  0  0  0  0
  6  7  1  0  0  0  0
  6  8  1  0  0  0  0
  7 10  1  0  0  0  0
  8 10  1  0  0  0  0
  9 13  1  0  0  0  0
 10 13  1  0  0  0  0
  1 14  1  0  0  0  0
  2 15  1  0  0  0  0
  5 16  1  0  0  0  0
  5 17  1  0  0  0  0
  6 18  1  0  0  0  0
  6 19  1  0  0  0  0
  7 20  1  0  0  0  0
  7 21  1  0  0  0  0
  8 22  1  0  0  0  0
  8 23  1  0  0  0  0
  9 24  1  0  0  0  0
  9 25  1  0  0  0  0
 10 26  1  0  0  0  0
M  END
> <HYBRID receptor title>
5S18(A) > WOY(A-201)

> <HYBRID receptor filename>
5s18.oedu

> <HYBRID Chemgauss4 score>
-7.159800

> <HYBRID receptor title>
5S18(A) > WOY(A-201)

> <HYBRID receptor filename>
5s18.oedu

> <Dock Type>
Hybrid

$$$$
MOL0017_1
  -OEChem-06022418243D

 13 14  0     0  0  0  0  0  0999 V2000
   -1.4578   15.0579    0.7928 C   0  0  0  0  0  0  0  0  0  0  0  0
   -4.9713   15.1348    0.4216 C   0  0  0  0  0  0  0  0  0  0  0  0
   -4.0804   15.0071   -1.7093 C   0  0  0  0  0  0  0  0  0  0  0  0
   -2.6093   15.0501   -0.0135 C   0  0  0  0  0  0  0  0  0  0  0  0
   -3.6672   15.1219    0.8787 C   0  0  0  0  0  0  0  0  0  0  0  0
   -5.1743   15.0750   -0.9141 N   0  0  0  0  0  0  0  0  0  0  0  0
   -1.7492   15.1286    2.0957 N   0  0  0  0  0  0  0  0  0  0  0  0
   -2.7774   14.9895   -1.3546 N   0  0  0  0  0  0  0  0  0  0  0  0
   -3.0953   15.1665    2.1159 N   0  0  0  0  0  0  0  0  0  0  0  0
   -0.4211   15.0149    0.4914 H   0  0  0  0  0  0  0  0  0  0  0  0
   -5.8396   15.1899    1.0630 H   0  0  0  0  0  0  0  0  0  0  0  0
   -4.2781   14.9605   -2.7748 H   0  0  0  0  0  0  0  0  0  0  0  0
   -3.5586   15.2222    3.0143 H   0  0  0  0  0  0  0  0  0  0  0  0
  1  4  1  0  0  0  0
  1  7  2  0  0  0  0
  2  5  1  0  0  0  0
  2  6  2  0  0  0  0
  3  6  1  0  0  0  0
  3  8  2  0  0  0  0
  4  5  2  0  0  0  0
  4  8  1  0  0  0  0
  5  9  1  0  0  0  0
  7  9  1  0  0  0  0
  1 10  1  0  0  0  0
  2 11  1  0  0  0  0
  3 12  1  0  0  0  0
  9 13  1  0  0  0  0
M  END
> <HYBRID receptor title>
5S18(A) > WOY(A-201)

> <HYBRID receptor filename>
5s18.oedu

> <HYBRID Chemgauss4 score>
-7.111488

> <HYBRID receptor title>
5S18(A) > WOY(A-201)

> <HYBRID receptor filename>
5s18.oedu

> <Dock Type>
Hybrid

$$$$
MOL0167_7
  -OEChem-06022418243D

 28 30  0     0  0  0  0  0  0999 V2000
   -2.7498   15.2269    1.1938 C   0  0  0  0  0  0  0  0  0  0  0  0
   -0.5201   14.9420    0.7769 C   0  0  0  0  0  0  0  0  0  0  0  0
   -2.9984   15.2156   -0.1550 C   0  0  0  0  0  0  0  0  0  0  0  0
   -1.9136   15.0573   -0.9950 C   0  0  0  0  0  0  0  0  0  0  0  0
   -1.5119   14.9324   -3.4249 C   0  0  0  0  0  0  0  0  0  0  0  0
   -4.2837   15.3498   -0.8910 C   0  0  0  0  0  0  0  0  0  0  0  0
    1.7902   13.7257   -3.6683 C   0  0  0  0  0  0  0  0  0  0  0  0
    0.4600   13.4788   -4.4038 C   0  0  0  0  0  0  0  0  0  0  0  0
    1.0675   14.8352   -2.8818 C   0  0  0  0  0  0  0  0  0  0  0  0
   -3.8178   15.2473   -2.3503 C   0  0  0  0  0  0  0  0  0  0  0  0
   -0.2606   14.0877   -3.1722 C   0  0  0  0  0  0  0  0  0  0  0  0
   -1.5041   15.0902    1.6948 N   0  0  0  0  0  0  0  0  0  0  0  0
   -0.6488   14.9164   -0.5664 N   0  0  0  0  0  0  0  0  0  0  0  0
   -2.3520   15.0691   -2.3335 N   0  0  0  0  0  0  0  0  0  0  0  0
   -1.7054   15.4287   -4.5356 O   0  0  0  0  0  0  0  0  0  0  0  0
   -3.5414   15.3460    1.9240 H   0  0  0  0  0  0  0  0  0  0  0  0
    0.4851   14.8317    1.1659 H   0  0  0  0  0  0  0  0  0  0  0  0
   -4.9700   14.5366   -0.6366 H   0  0  0  0  0  0  0  0  0  0  0  0
   -4.7525   16.3180   -0.6922 H   0  0  0  0  0  0  0  0  0  0  0  0
    2.1131   12.8831   -3.0463 H   0  0  0  0  0  0  0  0  0  0  0  0
    2.6264   14.0510   -4.2920 H   0  0  0  0  0  0  0  0  0  0  0  0
    0.3501   14.0604   -5.3270 H   0  0  0  0  0  0  0  0  0  0  0  0
    0.2276   12.4315   -4.6154 H   0  0  0  0  0  0  0  0  0  0  0  0
    1.3410   14.9170   -1.8261 H   0  0  0  0  0  0  0  0  0  0  0  0
    1.1411   15.8263   -3.3454 H   0  0  0  0  0  0  0  0  0  0  0  0
   -4.2754   14.3933   -2.8622 H   0  0  0  0  0  0  0  0  0  0  0  0
   -4.0602   16.1534   -2.9168 H   0  0  0  0  0  0  0  0  0  0  0  0
   -0.4838   13.3324   -2.4101 H   0  0  0  0  0  0  0  0  0  0  0  0
  1  3  1  0  0  0  0
  1 12  2  0  0  0  0
  2 12  1  0  0  0  0
  2 13  2  0  0  0  0
  3  4  2  0  0  0  0
  3  6  1  0  0  0  0
  4 13  1  0  0  0  0
  4 14  1  0  0  0  0
  5 11  1  0  0  0  0
  5 14  1  0  0  0  0
  5 15  2  0  0  0  0
  6 10  1  0  0  0  0
  7  8  1  0  0  0  0
  7  9  1  0  0  0  0
  8 11  1  0  0  0  0
  9 11  1  0  0  0  0
 10 14  1  0  0  0  0
  1 16  1  0  0  0  0
  2 17  1  0  0  0  0
  6 18  1  0  0  0  0
  6 19  1  0  0  0  0
  7 20  1  0  0  0  0
  7 21  1  0  0  0  0
  8 22  1  0  0  0  0
  8 23  1  0  0  0  0
  9 24  1  0  0  0  0
  9 25  1  0  0  0  0
 10 26  1  0  0  0  0
 10 27  1  0  0  0  0
 11 28  1  0  0  0  0
M  END
> <HYBRID receptor title>
5S18(A) > WOY(A-201)

> <HYBRID receptor filename>
5s18.oedu

> <HYBRID Chemgauss4 score>
-7.090158

> <HYBRID receptor title>
5S18(A) > WOY(A-201)

> <HYBRID receptor filename>
5s18.oedu

> <Dock Type>
Hybrid

$$$$
MOL0097_1
  -OEChem-06022418243D

 21 22  0     1  0  0  0  0  0999 V2000
   -1.2600   14.7192   -0.8275 C   0  0  0  0  0  0  0  0  0  0  0  0
   -0.2172   14.8610    1.1790 C   0  0  0  0  0  0  0  0  0  0  0  0
   -2.4981   14.9311   -0.2422 C   0  0  0  0  0  0  0  0  0  0  0  0
   -2.5027   15.0701    1.1493 C   0  0  0  0  0  0  0  0  0  0  0  0
   -4.9410   14.8992    1.1051 C   0  0  0  0  0  0  0  0  0  0  0  0
   -4.8828   15.4259   -0.3340 C   0  0  2  0  0  0  0  0  0  0  0  0
   -6.0976   14.9687   -1.1329 C   0  0  0  0  0  0  0  0  0  0  0  0
   -0.0980   14.6822   -0.1465 N   0  0  0  0  0  0  0  0  0  0  0  0
   -1.3565   15.0547    1.8706 N   0  0  0  0  0  0  0  0  0  0  0  0
   -3.6677   14.9522   -0.9842 N   0  0  0  0  0  0  0  0  0  0  0  0
   -3.7183   15.2353    1.8105 N   0  0  0  0  0  0  0  0  0  0  0  0
   -1.1617   14.5759   -1.8995 H   0  0  0  0  0  0  0  0  0  0  0  0
    0.6999   14.8451    1.7548 H   0  0  0  0  0  0  0  0  0  0  0  0
   -5.7925   15.3410    1.6345 H   0  0  0  0  0  0  0  0  0  0  0  0
   -5.0820   13.8110    1.1184 H   0  0  0  0  0  0  0  0  0  0  0  0
   -4.8698   16.5237   -0.3180 H   0  0  0  0  0  0  0  0  0  0  0  0
   -6.1342   13.8800   -1.1643 H   0  0  0  0  0  0  0  0  0  0  0  0
   -6.0380   15.3507   -2.1518 H   0  0  0  0  0  0  0  0  0  0  0  0
   -7.0103   15.3407   -0.6677 H   0  0  0  0  0  0  0  0  0  0  0  0
   -3.6062   14.9580   -1.9956 H   0  0  0  0  0  0  0  0  0  0  0  0
   -3.7142   15.3106    2.8199 H   0  0  0  0  0  0  0  0  0  0  0  0
  1  3  1  0  0  0  0
  1  8  2  0  0  0  0
  2  8  1  0  0  0  0
  2  9  2  0  0  0  0
  3  4  2  0  0  0  0
  3 10  1  0  0  0  0
  4  9  1  0  0  0  0
  4 11  1  0  0  0  0
  5  6  1  0  0  0  0
  5 11  1  0  0  0  0
  6  7  1  0  0  0  0
  6 10  1  0  0  0  0
  1 12  1  0  0  0  0
  2 13  1  0  0  0  0
  5 14  1  0  0  0  0
  5 15  1  0  0  0  0
  6 16  1  0  0  0  0
  7 17  1  0  0  0  0
  7 18  1  0  0  0  0
  7 19  1  0  0  0  0
 10 20  1  0  0  0  0
 11 21  1  0  0  0  0
M  END
> <HYBRID receptor title>
5S18(A) > WOY(A-201)

> <HYBRID receptor filename>
5s18.oedu

> <HYBRID Chemgauss4 score>
-7.074753

> <HYBRID receptor title>
5S18(A) > WOY(A-201)

> <HYBRID receptor filename>
5s18.oedu

> <Dock Type>
Hybrid

$$$$
MOL0077_3
  -OEChem-06022418243D

 24 25  0     0  0  0  0  0  0999 V2000
    0.2612   14.9391    0.8623 C   0  0  0  0  0  0  0  0  0  0  0  0
   -1.9604   14.9487   -0.5888 C   0  0  0  0  0  0  0  0  0  0  0  0
   -1.9898   15.1446    0.7825 C   0  0  0  0  0  0  0  0  0  0  0  0
   -0.7431   14.7402   -1.1813 C   0  0  0  0  0  0  0  0  0  0  0  0
   -3.3343   14.9645   -1.1556 C   0  0  0  0  0  0  0  0  0  0  0  0
   -4.1561   15.4653    0.0519 C   0  0  0  0  0  0  0  0  0  0  0  0
    0.9904   16.1097   -3.2468 C   0  0  0  0  0  0  0  0  0  0  0  0
    0.4979   14.7060   -3.3457 C   0  0  0  0  0  0  0  0  0  0  0  0
   -0.8853   15.1450    1.5464 N   0  0  0  0  0  0  0  0  0  0  0  0
    0.4021   14.7345   -0.4691 N   0  0  0  0  0  0  0  0  0  0  0  0
   -3.3085   15.3278    1.2243 N   0  0  0  0  0  0  0  0  0  0  0  0
   -0.6919   14.5216   -2.5757 N   0  0  0  0  0  0  0  0  0  0  0  0
    1.1747   14.9366    1.4452 H   0  0  0  0  0  0  0  0  0  0  0  0
   -3.4245   15.6478   -2.0049 H   0  0  0  0  0  0  0  0  0  0  0  0
   -3.6394   13.9540   -1.4458 H   0  0  0  0  0  0  0  0  0  0  0  0
   -4.4187   16.5212   -0.0836 H   0  0  0  0  0  0  0  0  0  0  0  0
   -5.0862   14.8985    0.1637 H   0  0  0  0  0  0  0  0  0  0  0  0
    1.2075   16.3494   -2.1954 H   0  0  0  0  0  0  0  0  0  0  0  0
    1.9072   16.2194   -3.8446 H   0  0  0  0  0  0  0  0  0  0  0  0
    0.2199   16.7962   -3.6278 H   0  0  0  0  0  0  0  0  0  0  0  0
    0.2832   14.4742   -4.3993 H   0  0  0  0  0  0  0  0  0  0  0  0
    1.2767   14.0251   -2.9718 H   0  0  0  0  0  0  0  0  0  0  0  0
   -3.5649   15.5527    2.1729 H   0  0  0  0  0  0  0  0  0  0  0  0
   -1.5402   14.2263   -3.0188 H   0  0  0  0  0  0  0  0  0  0  0  0
  1  9  1  0  0  0  0
  1 10  2  0  0  0  0
  2  3  1  0  0  0  0
  2  4  2  0  0  0  0
  2  5  1  0  0  0  0
  3  9  2  0  0  0  0
  3 11  1  0  0  0  0
  4 10  1  0  0  0  0
  4 12  1  0  0  0  0
  5  6  1  0  0  0  0
  6 11  1  0  0  0  0
  7  8  1  0  0  0  0
  8 12  1  0  0  0  0
  1 13  1  0  0  0  0
  5 14  1  0  0  0  0
  5 15  1  0  0  0  0
  6 16  1  0  0  0  0
  6 17  1  0  0  0  0
  7 18  1  0  0  0  0
  7 19  1  0  0  0  0
  7 20  1  0  0  0  0
  8 21  1  0  0  0  0
  8 22  1  0  0  0  0
 11 23  1  0  0  0  0
 12 24  1  0  0  0  0
M  END
> <HYBRID receptor title>
5S18(A) > WOY(A-201)

> <HYBRID receptor filename>
5s18.oedu

> <HYBRID Chemgauss4 score>
-7.066195

> <HYBRID receptor title>
5S18(A) > WOY(A-201)

> <HYBRID receptor filename>
5s18.oedu

> <Dock Type>
Hybrid

$$$$
MOL0217_9
  -OEChem-06022418243D

 25 26  0     0  0  0  0  0  0999 V2000
   -0.3718   14.8049    1.0644 C   0  0  0  0  0  0  0  0  0  0  0  0
   -2.6403   14.9593   -0.3035 C   0  0  0  0  0  0  0  0  0  0  0  0
   -2.6253   14.9976    1.0814 C   0  0  0  0  0  0  0  0  0  0  0  0
   -1.4423   14.8307   -0.9550 C   0  0  0  0  0  0  0  0  0  0  0  0
   -4.0323   15.0269   -0.8200 C   0  0  0  0  0  0  0  0  0  0  0  0
   -4.8163   15.3796    0.4627 C   0  0  0  0  0  0  0  0  0  0  0  0
   -0.3433   14.2363   -3.1148 C   0  0  0  0  0  0  0  0  0  0  0  0
    0.6655   15.3339   -3.4002 C   0  0  0  0  0  0  0  0  0  0  0  0
   -1.4960   14.9212    1.8043 N   0  0  0  0  0  0  0  0  0  0  0  0
   -0.2741   14.7543   -0.2856 N   0  0  0  0  0  0  0  0  0  0  0  0
   -3.9295   15.1174    1.5837 N   0  0  0  0  0  0  0  0  0  0  0  0
   -1.4362   14.7725   -2.3662 N   0  0  0  0  0  0  0  0  0  0  0  0
    1.7676   14.7884   -4.1141 O   0  0  0  0  0  0  0  0  0  0  0  0
    0.5606   14.7444    1.6133 H   0  0  0  0  0  0  0  0  0  0  0  0
   -4.1543   15.8016   -1.5826 H   0  0  0  0  0  0  0  0  0  0  0  0
   -4.3415   14.0532   -1.2135 H   0  0  0  0  0  0  0  0  0  0  0  0
   -5.0889   16.4417    0.4570 H   0  0  0  0  0  0  0  0  0  0  0  0
   -5.7391   14.7953    0.5391 H   0  0  0  0  0  0  0  0  0  0  0  0
   -0.7391   13.8102   -4.0422 H   0  0  0  0  0  0  0  0  0  0  0  0
    0.1177   13.4399   -2.5227 H   0  0  0  0  0  0  0  0  0  0  0  0
    1.0436   15.7489   -2.4607 H   0  0  0  0  0  0  0  0  0  0  0  0
    0.2251   16.1407   -3.9951 H   0  0  0  0  0  0  0  0  0  0  0  0
   -4.1555   15.2305    2.5595 H   0  0  0  0  0  0  0  0  0  0  0  0
   -2.2445   15.1303   -2.8372 H   0  0  0  0  0  0  0  0  0  0  0  0
    2.3855   15.5195   -4.2754 H   0  0  0  0  0  0  0  0  0  0  0  0
  1  9  1  0  0  0  0
  1 10  2  0  0  0  0
  2  3  1  0  0  0  0
  2  4  2  0  0  0  0
  2  5  1  0  0  0  0
  3  9  2  0  0  0  0
  3 11  1  0  0  0  0
  4 10  1  0  0  0  0
  4 12  1  0  0  0  0
  5  6  1  0  0  0  0
  6 11  1  0  0  0  0
  7  8  1  0  0  0  0
  7 12  1  0  0  0  0
  8 13  1  0  0  0  0
  1 14  1  0  0  0  0
  5 15  1  0  0  0  0
  5 16  1  0  0  0  0
  6 17  1  0  0  0  0
  6 18  1  0  0  0  0
  7 19  1  0  0  0  0
  7 20  1  0  0  0  0
  8 21  1  0  0  0  0
  8 22  1  0  0  0  0
 11 23  1  0  0  0  0
 12 24  1  0  0  0  0
 13 25  1  0  0  0  0
M  END
> <HYBRID receptor title>
5S18(A) > WOY(A-201)

> <HYBRID receptor filename>
5s18.oedu

> <HYBRID Chemgauss4 score>
-7.055380

> <HYBRID receptor title>
5S18(A) > WOY(A-201)

> <HYBRID receptor filename>
5s18.oedu

> <Dock Type>
Hybrid

$$$$
MOL0044_7
  -OEChem-06022418243D

 26 28  0     1  0  0  0  0  0999 V2000
   -2.7718   14.7754    1.5140 C   0  0  0  0  0  0  0  0  0  0  0  0
   -0.6444   14.9788    0.7070 C   0  0  0  0  0  0  0  0  0  0  0  0
   -3.2312   14.6367    0.2307 C   0  0  0  0  0  0  0  0  0  0  0  0
   -2.3060   14.6679   -0.8036 C   0  0  0  0  0  0  0  0  0  0  0  0
   -4.6037   14.4123   -0.2942 C   0  0  0  0  0  0  0  0  0  0  0  0
   -0.2295   14.2461   -4.7172 C   0  0  0  0  0  0  0  0  0  0  0  0
    0.2787   14.7300   -3.3877 C   0  0  0  0  0  0  0  0  0  0  0  0
   -4.3823   14.6651   -1.7994 C   0  0  0  0  0  0  0  0  0  0  0  0
   -1.0598   14.0510   -3.4788 C   0  0  0  0  0  0  0  0  0  0  0  0
   -2.3132   14.8342   -3.2837 C   0  0  0  0  0  0  0  0  0  0  0  0
   -1.4634   14.9540    1.7848 N   0  0  0  0  0  0  0  0  0  0  0  0
   -0.9894   14.8433   -0.5921 N   0  0  0  0  0  0  0  0  0  0  0  0
   -2.9527   14.4896   -2.0409 N   0  0  1  0  0  0  0  0  0  0  0  0
   -3.4339   14.7492    2.3708 H   0  0  0  0  0  0  0  0  0  0  0  0
    0.4095   15.1267    0.9105 H   0  0  0  0  0  0  0  0  0  0  0  0
   -4.9592   13.3950   -0.1083 H   0  0  0  0  0  0  0  0  0  0  0  0
   -5.2985   15.1431    0.1319 H   0  0  0  0  0  0  0  0  0  0  0  0
   -0.5410   14.9913   -5.4387 H   0  0  0  0  0  0  0  0  0  0  0  0
    0.2429   13.3727   -5.1498 H   0  0  0  0  0  0  0  0  0  0  0  0
    1.0916   14.1810   -2.9285 H   0  0  0  0  0  0  0  0  0  0  0  0
    0.3077   15.7994   -3.2188 H   0  0  0  0  0  0  0  0  0  0  0  0
   -4.9488   13.9305   -2.3869 H   0  0  0  0  0  0  0  0  0  0  0  0
   -4.7231   15.6643   -2.0909 H   0  0  0  0  0  0  0  0  0  0  0  0
   -1.1420   13.0462   -3.0823 H   0  0  0  0  0  0  0  0  0  0  0  0
   -2.0691   15.9067   -3.2765 H   0  0  0  0  0  0  0  0  0  0  0  0
   -3.0029   14.6207   -4.1136 H   0  0  0  0  0  0  0  0  0  0  0  0
  1  3  1  0  0  0  0
  1 11  2  0  0  0  0
  2 11  1  0  0  0  0
  2 12  2  0  0  0  0
  3  4  2  0  0  0  0
  3  5  1  0  0  0  0
  4 12  1  0  0  0  0
  4 13  1  0  0  0  0
  5  8  1  0  0  0  0
  6  7  1  0  0  0  0
  6  9  1  0  0  0  0
  7  9  1  0  0  0  0
  8 13  1  0  0  0  0
  9 10  1  0  0  0  0
 10 13  1  0  0  0  0
  1 14  1  0  0  0  0
  2 15  1  0  0  0  0
  5 16  1  0  0  0  0
  5 17  1  0  0  0  0
  6 18  1  0  0  0  0
  6 19  1  0  0  0  0
  7 20  1  0  0  0  0
  7 21  1  0  0  0  0
  8 22  1  0  0  0  0
  8 23  1  0  0  0  0
  9 24  1  0  0  0  0
 10 25  1  0  0  0  0
 10 26  1  0  0  0  0
M  END
> <HYBRID receptor title>
5S18(A) > WOY(A-201)

> <HYBRID receptor filename>
5s18.oedu

> <HYBRID Chemgauss4 score>
-7.039486

> <HYBRID receptor title>
5S18(A) > WOY(A-201)

> <HYBRID receptor filename>
5s18.oedu

> <Dock Type>
Hybrid

$$$$
MOL0050_3
  -OEChem-06022418243D

 23 25  0     1  0  0  0  0  0999 V2000
   -2.8046   15.1095    1.6147 C   0  0  0  0  0  0  0  0  0  0  0  0
   -0.6317   14.7870    0.9881 C   0  0  0  0  0  0  0  0  0  0  0  0
   -3.1677   15.1362    0.2938 C   0  0  0  0  0  0  0  0  0  0  0  0
   -2.1724   14.9887   -0.6625 C   0  0  0  0  0  0  0  0  0  0  0  0
   -4.4928   15.3382   -0.3487 C   0  0  0  0  0  0  0  0  0  0  0  0
   -0.5158   14.7321   -3.2265 C   0  0  0  0  0  0  0  0  0  0  0  0
   -1.1266   13.3744   -3.0421 C   0  0  0  0  0  0  0  0  0  0  0  0
   -4.1718   14.9398   -1.8037 C   0  0  0  0  0  0  0  0  0  0  0  0
   -2.0078   14.5902   -3.1105 C   0  0  0  0  0  0  0  0  0  0  0  0
   -1.5240   14.9300    1.9960 N   0  0  0  0  0  0  0  0  0  0  0  0
   -0.8796   14.8070   -0.3399 N   0  0  0  0  0  0  0  0  0  0  0  0
   -2.7245   15.0628   -1.9550 N   0  0  2  0  0  0  0  0  0  0  0  0
   -3.5251   15.2303    2.4144 H   0  0  0  0  0  0  0  0  0  0  0  0
    0.4010   14.6403    1.2810 H   0  0  0  0  0  0  0  0  0  0  0  0
   -5.2656   14.6944    0.0802 H   0  0  0  0  0  0  0  0  0  0  0  0
   -4.7918   16.3892   -0.2832 H   0  0  0  0  0  0  0  0  0  0  0  0
    0.0293   15.1562   -2.3921 H   0  0  0  0  0  0  0  0  0  0  0  0
   -0.1059   14.9737   -4.1995 H   0  0  0  0  0  0  0  0  0  0  0  0
   -1.1286   12.7020   -3.8910 H   0  0  0  0  0  0  0  0  0  0  0  0
   -0.9924   12.8889   -2.0833 H   0  0  0  0  0  0  0  0  0  0  0  0
   -4.4740   13.8991   -1.9805 H   0  0  0  0  0  0  0  0  0  0  0  0
   -4.7097   15.5730   -2.5173 H   0  0  0  0  0  0  0  0  0  0  0  0
   -2.5832   14.7257   -4.0197 H   0  0  0  0  0  0  0  0  0  0  0  0
  1  3  1  0  0  0  0
  1 10  2  0  0  0  0
  2 10  1  0  0  0  0
  2 11  2  0  0  0  0
  3  4  2  0  0  0  0
  3  5  1  0  0  0  0
  4 11  1  0  0  0  0
  4 12  1  0  0  0  0
  5  8  1  0  0  0  0
  6  7  1  0  0  0  0
  6  9  1  0  0  0  0
  7  9  1  0  0  0  0
  8 12  1  0  0  0  0
  9 12  1  0  0  0  0
  1 13  1  0  0  0  0
  2 14  1  0  0  0  0
  5 15  1  0  0  0  0
  5 16  1  0  0  0  0
  6 17  1  0  0  0  0
  6 18  1  0  0  0  0
  7 19  1  0  0  0  0
  7 20  1  0  0  0  0
  8 21  1  0  0  0  0
  8 22  1  0  0  0  0
  9 23  1  0  0  0  0
M  END
> <HYBRID receptor title>
5S18(A) > WOY(A-201)

> <HYBRID receptor filename>
5s18.oedu

> <HYBRID Chemgauss4 score>
-7.015804

> <HYBRID receptor title>
5S18(A) > WOY(A-201)

> <HYBRID receptor filename>
5s18.oedu

> <Dock Type>
Hybrid

$$$$
MOL0187_6
  -OEChem-06022418243D

 34 36  0     0  0  0  0  0  0999 V2000
   -2.4457   15.2396    1.2667 C   0  0  0  0  0  0  0  0  0  0  0  0
   -0.2563   14.6647    0.9459 C   0  0  0  0  0  0  0  0  0  0  0  0
   -2.6586   15.1644   -0.0861 C   0  0  0  0  0  0  0  0  0  0  0  0
   -1.5791   14.8209   -0.8763 C   0  0  0  0  0  0  0  0  0  0  0  0
   -1.1322   14.4813   -3.2776 C   0  0  0  0  0  0  0  0  0  0  0  0
   -3.8987   15.3983   -0.8728 C   0  0  0  0  0  0  0  0  0  0  0  0
   -0.6621   11.1346   -4.9505 C   0  0  0  0  0  0  0  0  0  0  0  0
    0.1214   12.3867   -5.3269 C   0  0  0  0  0  0  0  0  0  0  0  0
   -1.5767   11.3869   -3.7575 C   0  0  0  0  0  0  0  0  0  0  0  0
   -0.7993   13.5792   -5.5842 C   0  0  0  0  0  0  0  0  0  0  0  0
   -2.5245   12.5579   -4.0112 C   0  0  0  0  0  0  0  0  0  0  0  0
   -3.4106   15.1405   -2.3055 C   0  0  0  0  0  0  0  0  0  0  0  0
   -1.7999   13.8306   -4.4543 C   0  0  0  0  0  0  0  0  0  0  0  0
   -1.2390   14.9916    1.8179 N   0  0  0  0  0  0  0  0  0  0  0  0
   -0.3522   14.5615   -0.3965 N   0  0  0  0  0  0  0  0  0  0  0  0
   -1.9779   14.7917   -2.2269 N   0  0  0  0  0  0  0  0  0  0  0  0
    0.0800   14.6988   -3.3006 O   0  0  0  0  0  0  0  0  0  0  0  0
   -3.2363   15.5009    1.9601 H   0  0  0  0  0  0  0  0  0  0  0  0
    0.7175   14.4624    1.3755 H   0  0  0  0  0  0  0  0  0  0  0  0
   -4.6843   14.6915   -0.5892 H   0  0  0  0  0  0  0  0  0  0  0  0
   -4.2524   16.4266   -0.7540 H   0  0  0  0  0  0  0  0  0  0  0  0
   -1.2610   10.8055   -5.8086 H   0  0  0  0  0  0  0  0  0  0  0  0
    0.0338   10.3212   -4.7159 H   0  0  0  0  0  0  0  0  0  0  0  0
    0.8243   12.6325   -4.5216 H   0  0  0  0  0  0  0  0  0  0  0  0
    0.7235   12.1893   -6.2212 H   0  0  0  0  0  0  0  0  0  0  0  0
   -2.1621   10.4841   -3.5485 H   0  0  0  0  0  0  0  0  0  0  0  0
   -0.9712   11.5816   -2.8644 H   0  0  0  0  0  0  0  0  0  0  0  0
   -0.1896   14.4720   -5.7653 H   0  0  0  0  0  0  0  0  0  0  0  0
   -1.3634   13.3898   -6.5061 H   0  0  0  0  0  0  0  0  0  0  0  0
   -3.2330   12.2716   -4.7984 H   0  0  0  0  0  0  0  0  0  0  0  0
   -3.1142   12.7470   -3.1067 H   0  0  0  0  0  0  0  0  0  0  0  0
   -3.9550   14.3130   -2.7740 H   0  0  0  0  0  0  0  0  0  0  0  0
   -3.5289   16.0275   -2.9374 H   0  0  0  0  0  0  0  0  0  0  0  0
   -2.5494   14.5530   -4.8003 H   0  0  0  0  0  0  0  0  0  0  0  0
  1  3  1  0  0  0  0
  1 14  2  0  0  0  0
  2 14  1  0  0  0  0
  2 15  2  0  0  0  0
  3  4  2  0  0  0  0
  3  6  1  0  0  0  0
  4 15  1  0  0  0  0
  4 16  1  0  0  0  0
  5 13  1  0  0  0  0
  5 16  1  0  0  0  0
  5 17  2  0  0  0  0
  6 12  1  0  0  0  0
  7  8  1  0  0  0  0
  7  9  1  0  0  0  0
  8 10  1  0  0  0  0
  9 11  1  0  0  0  0
 10 13  1  0  0  0  0
 11 13  1  0  0  0  0
 12 16  1  0  0  0  0
  1 18  1  0  0  0  0
  2 19  1  0  0  0  0
  6 20  1  0  0  0  0
  6 21  1  0  0  0  0
  7 22  1  0  0  0  0
  7 23  1  0  0  0  0
  8 24  1  0  0  0  0
  8 25  1  0  0  0  0
  9 26  1  0  0  0  0
  9 27  1  0  0  0  0
 10 28  1  0  0  0  0
 10 29  1  0  0  0  0
 11 30  1  0  0  0  0
 11 31  1  0  0  0  0
 12 32  1  0  0  0  0
 12 33  1  0  0  0  0
 13 34  1  0  0  0  0
M  END
> <HYBRID receptor title>
5S18(A) > WOY(A-201)

> <HYBRID receptor filename>
5s18.oedu

> <HYBRID Chemgauss4 score>
-6.979548

> <HYBRID receptor title>
5S18(A) > WOY(A-201)

> <HYBRID receptor filename>
5s18.oedu

> <Dock Type>
Hybrid

$$$$
MOL0135_2
  -OEChem-06022418243D

 22 23  0     1  0  0  0  0  0999 V2000
   -2.1967   14.9298    0.9037 C   0  0  0  0  0  0  0  0  0  0  0  0
    0.0823   14.8869    1.0534 C   0  0  0  0  0  0  0  0  0  0  0  0
   -2.1005   14.6659   -0.4373 C   0  0  0  0  0  0  0  0  0  0  0  0
   -0.8340   14.5315   -0.9894 C   0  0  0  0  0  0  0  0  0  0  0  0
   -3.1500   14.5214   -1.4798 C   0  0  0  0  0  0  0  0  0  0  0  0
   -2.3221   13.9410   -2.6445 C   0  0  0  0  0  0  0  0  0  0  0  0
    0.1778   13.7535   -3.1224 C   0  0  0  0  0  0  0  0  0  0  0  0
    1.1613   14.8314   -3.5028 C   0  0  0  0  0  0  0  0  0  0  0  0
   -1.1044   15.0437    1.6857 N   0  0  0  0  0  0  0  0  0  0  0  0
    0.2895   14.6353   -0.2577 N   0  0  0  0  0  0  0  0  0  0  0  0
   -0.9294   14.2856   -2.3719 N   0  0  2  0  0  0  0  0  0  0  0  0
    2.1908   14.3060   -4.2032 F   0  0  0  0  0  0  0  0  0  0  0  0
    0.5829   15.7772   -4.2734 F   0  0  0  0  0  0  0  0  0  0  0  0
    1.6760   15.4367   -2.4113 F   0  0  0  0  0  0  0  0  0  0  0  0
   -3.1506   15.0601    1.4000 H   0  0  0  0  0  0  0  0  0  0  0  0
    0.9685   14.9758    1.6705 H   0  0  0  0  0  0  0  0  0  0  0  0
   -3.9466   13.8364   -1.1763 H   0  0  0  0  0  0  0  0  0  0  0  0
   -3.5664   15.4999   -1.7393 H   0  0  0  0  0  0  0  0  0  0  0  0
   -2.4336   12.8490   -2.6718 H   0  0  0  0  0  0  0  0  0  0  0  0
   -2.6567   14.3378   -3.6088 H   0  0  0  0  0  0  0  0  0  0  0  0
    0.6606   12.9905   -2.5047 H   0  0  0  0  0  0  0  0  0  0  0  0
   -0.2293   13.2698   -4.0151 H   0  0  0  0  0  0  0  0  0  0  0  0
  1  3  1  0  0  0  0
  1  9  2  0  0  0  0
  2  9  1  0  0  0  0
  2 10  2  0  0  0  0
  3  4  2  0  0  0  0
  3  5  1  0  0  0  0
  4 10  1  0  0  0  0
  4 11  1  0  0  0  0
  5  6  1  0  0  0  0
  6 11  1  0  0  0  0
  7  8  1  0  0  0  0
  7 11  1  0  0  0  0
  8 12  1  0  0  0  0
  8 13  1  0  0  0  0
  8 14  1  0  0  0  0
  1 15  1  0  0  0  0
  2 16  1  0  0  0  0
  5 17  1  0  0  0  0
  5 18  1  0  0  0  0
  6 19  1  0  0  0  0
  6 20  1  0  0  0  0
  7 21  1  0  0  0  0
  7 22  1  0  0  0  0
M  END
> <HYBRID receptor title>
5S18(A) > WOY(A-201)

> <HYBRID receptor filename>
5s18.oedu

> <HYBRID Chemgauss4 score>
-6.969941

> <HYBRID receptor title>
5S18(A) > WOY(A-201)

> <HYBRID receptor filename>
5s18.oedu

> <Dock Type>
Hybrid

$$$$
MOL0082_3
  -OEChem-06022418243D

 25 27  0     1  0  0  0  0  0999 V2000
   -1.1310   14.4351   -1.1930 C   0  0  0  0  0  0  0  0  0  0  0  0
   -0.1672   14.3881    0.8559 C   0  0  0  0  0  0  0  0  0  0  0  0
   -2.3315   14.8783   -0.6608 C   0  0  0  0  0  0  0  0  0  0  0  0
   -2.3694   15.0256    0.7272 C   0  0  0  0  0  0  0  0  0  0  0  0
   -6.2319   13.7160    1.9537 C   0  0  0  0  0  0  0  0  0  0  0  0
   -6.9923   14.0031    0.6891 C   0  0  0  0  0  0  0  0  0  0  0  0
   -4.5600   15.8361   -0.8684 C   0  0  0  0  0  0  0  0  0  0  0  0
   -5.4910   14.0867    0.6989 C   0  0  0  0  0  0  0  0  0  0  0  0
   -4.8050   15.4243    0.5889 C   0  0  1  0  0  0  0  0  0  0  0  0
   -0.0266   14.1839   -0.4633 N   0  0  0  0  0  0  0  0  0  0  0  0
   -1.2789   14.7957    1.4973 N   0  0  0  0  0  0  0  0  0  0  0  0
   -3.4418   15.1148   -1.4495 N   0  0  0  0  0  0  0  0  0  0  0  0
   -3.5569   15.4135    1.3388 N   0  0  0  0  0  0  0  0  0  0  0  0
   -1.0204   14.2560   -2.2584 H   0  0  0  0  0  0  0  0  0  0  0  0
    0.7063   14.2086    1.4705 H   0  0  0  0  0  0  0  0  0  0  0  0
   -6.2931   14.4429    2.7541 H   0  0  0  0  0  0  0  0  0  0  0  0
   -6.1767   12.6865    2.2858 H   0  0  0  0  0  0  0  0  0  0  0  0
   -7.4467   13.1663    0.1729 H   0  0  0  0  0  0  0  0  0  0  0  0
   -7.5629   14.9224    0.6425 H   0  0  0  0  0  0  0  0  0  0  0  0
   -5.4591   15.6559   -1.4779 H   0  0  0  0  0  0  0  0  0  0  0  0
   -4.3615   16.9158   -0.9279 H   0  0  0  0  0  0  0  0  0  0  0  0
   -4.9405   13.3042    0.1908 H   0  0  0  0  0  0  0  0  0  0  0  0
   -5.4734   16.1784    1.0592 H   0  0  0  0  0  0  0  0  0  0  0  0
   -3.5872   14.5622   -2.2856 H   0  0  0  0  0  0  0  0  0  0  0  0
   -3.4867   15.9308    2.2166 H   0  0  0  0  0  0  0  0  0  0  0  0
  1  3  1  0  0  0  0
  1 10  2  0  0  0  0
  2 10  1  0  0  0  0
  2 11  2  0  0  0  0
  3  4  2  0  0  0  0
  3 12  1  0  0  0  0
  4 11  1  0  0  0  0
  4 13  1  0  0  0  0
  5  6  1  0  0  0  0
  5  8  1  0  0  0  0
  6  8  1  0  0  0  0
  7  9  1  0  0  0  0
  7 12  1  0  0  0  0
  8  9  1  0  0  0  0
  9 13  1  0  0  0  0
  1 14  1  0  0  0  0
  2 15  1  0  0  0  0
  5 16  1  0  0  0  0
  5 17  1  0  0  0  0
  6 18  1  0  0  0  0
  6 19  1  0  0  0  0
  7 20  1  0  0  0  0
  7 21  1  0  0  0  0
  8 22  1  0  0  0  0
  9 23  1  0  0  0  0
 12 24  1  0  0  0  0
 13 25  1  0  0  0  0
M  END
> <HYBRID receptor title>
5S18(A) > WOY(A-201)

> <HYBRID receptor filename>
5s18.oedu

> <HYBRID Chemgauss4 score>
-6.948874

> <HYBRID receptor title>
5S18(A) > WOY(A-201)

> <HYBRID receptor filename>
5s18.oedu

> <Dock Type>
Hybrid

$$$$
MOL0118_4
  -OEChem-06022418243D

 25 27  0     0  0  0  0  0  0999 V2000
   -2.5881   14.9090    1.4561 C   0  0  0  0  0  0  0  0  0  0  0  0
   -0.4151   14.7416    0.7656 C   0  0  0  0  0  0  0  0  0  0  0  0
   -3.0089   14.6794    0.1711 C   0  0  0  0  0  0  0  0  0  0  0  0
   -2.0332   14.4845   -0.7868 C   0  0  0  0  0  0  0  0  0  0  0  0
   -1.9431   14.0345   -3.2098 C   0  0  0  0  0  0  0  0  0  0  0  0
   -4.3864   14.6022   -0.3839 C   0  0  0  0  0  0  0  0  0  0  0  0
    0.3884   14.3670   -4.2561 C   0  0  0  0  0  0  0  0  0  0  0  0
    0.2759   15.3398   -3.1211 C   0  0  0  0  0  0  0  0  0  0  0  0
   -4.1080   14.3225   -1.8676 C   0  0  0  0  0  0  0  0  0  0  0  0
   -0.4414   14.0342   -3.0631 C   0  0  0  0  0  0  0  0  0  0  0  0
   -1.2801   14.9460    1.7869 N   0  0  0  0  0  0  0  0  0  0  0  0
   -0.7156   14.5082   -0.5293 N   0  0  0  0  0  0  0  0  0  0  0  0
   -2.6423   14.2643   -2.0376 N   0  0  0  0  0  0  0  0  0  0  0  0
   -2.4536   13.8394   -4.3137 O   0  0  0  0  0  0  0  0  0  0  0  0
   -3.2849   15.0718    2.2696 H   0  0  0  0  0  0  0  0  0  0  0  0
    0.6384   14.7689    1.0173 H   0  0  0  0  0  0  0  0  0  0  0  0
   -4.9505   13.7844    0.0741 H   0  0  0  0  0  0  0  0  0  0  0  0
   -4.9177   15.5496   -0.2526 H   0  0  0  0  0  0  0  0  0  0  0  0
   -0.0964   14.6244   -5.1899 H   0  0  0  0  0  0  0  0  0  0  0  0
    1.3221   13.8297   -4.3697 H   0  0  0  0  0  0  0  0  0  0  0  0
    1.1342   15.4577   -2.4707 H   0  0  0  0  0  0  0  0  0  0  0  0
   -0.2828   16.2516   -3.2940 H   0  0  0  0  0  0  0  0  0  0  0  0
   -4.5423   13.3689   -2.1877 H   0  0  0  0  0  0  0  0  0  0  0  0
   -4.5105   15.1130   -2.5106 H   0  0  0  0  0  0  0  0  0  0  0  0
   -0.0839   13.2842   -2.3837 H   0  0  0  0  0  0  0  0  0  0  0  0
  1  3  1  0  0  0  0
  1 11  2  0  0  0  0
  2 11  1  0  0  0  0
  2 12  2  0  0  0  0
  3  4  2  0  0  0  0
  3  6  1  0  0  0  0
  4 12  1  0  0  0  0
  4 13  1  0  0  0  0
  5 10  1  0  0  0  0
  5 13  1  0  0  0  0
  5 14  2  0  0  0  0
  6  9  1  0  0  0  0
  7  8  1  0  0  0  0
  7 10  1  0  0  0  0
  8 10  1  0  0  0  0
  9 13  1  0  0  0  0
  1 15  1  0  0  0  0
  2 16  1  0  0  0  0
  6 17  1  0  0  0  0
  6 18  1  0  0  0  0
  7 19  1  0  0  0  0
  7 20  1  0  0  0  0
  8 21  1  0  0  0  0
  8 22  1  0  0  0  0
  9 23  1  0  0  0  0
  9 24  1  0  0  0  0
 10 25  1  0  0  0  0
M  END
> <HYBRID receptor title>
5S18(A) > WOY(A-201)

> <HYBRID receptor filename>
5s18.oedu

> <HYBRID Chemgauss4 score>
-6.924232

> <HYBRID receptor title>
5S18(A) > WOY(A-201)

> <HYBRID receptor filename>
5s18.oedu

> <Dock Type>
Hybrid

$$$$
MOL0034_1
  -OEChem-06022418243D

 19 20  0     1  0  0  0  0  0999 V2000
   -1.1467   14.5967   -1.0287 C   0  0  0  0  0  0  0  0  0  0  0  0
    0.0171   14.9411    0.9074 C   0  0  0  0  0  0  0  0  0  0  0  0
   -2.3054   14.9449   -0.3834 C   0  0  0  0  0  0  0  0  0  0  0  0
   -2.2160   15.2998    0.9541 C   0  0  0  0  0  0  0  0  0  0  0  0
   -4.4725   15.2622    0.4687 C   0  0  0  0  0  0  0  0  0  0  0  0
   -3.7120   15.0721   -0.8700 C   0  0  2  0  0  0  0  0  0  0  0  0
   -4.2130   13.8741   -1.6608 C   0  0  0  0  0  0  0  0  0  0  0  0
    0.0449   14.5809   -0.3972 N   0  0  0  0  0  0  0  0  0  0  0  0
   -1.0587   15.3095    1.6359 N   0  0  0  0  0  0  0  0  0  0  0  0
   -3.4794   15.6367    1.4619 N   0  0  0  0  0  0  0  0  0  0  0  0
   -1.1282   14.3227   -2.0766 H   0  0  0  0  0  0  0  0  0  0  0  0
    0.9684   14.9336    1.4260 H   0  0  0  0  0  0  0  0  0  0  0  0
   -5.2445   16.0334    0.3762 H   0  0  0  0  0  0  0  0  0  0  0  0
   -4.9628   14.3337    0.7859 H   0  0  0  0  0  0  0  0  0  0  0  0
   -3.7953   15.9853   -1.4722 H   0  0  0  0  0  0  0  0  0  0  0  0
   -4.1297   12.9663   -1.0612 H   0  0  0  0  0  0  0  0  0  0  0  0
   -3.6222   13.7499   -2.5697 H   0  0  0  0  0  0  0  0  0  0  0  0
   -5.2585   14.0172   -1.9382 H   0  0  0  0  0  0  0  0  0  0  0  0
   -3.6615   15.8559    2.4291 H   0  0  0  0  0  0  0  0  0  0  0  0
  1  3  1  0  0  0  0
  1  8  2  0  0  0  0
  2  8  1  0  0  0  0
  2  9  2  0  0  0  0
  3  4  2  0  0  0  0
  3  6  1  0  0  0  0
  4  9  1  0  0  0  0
  4 10  1  0  0  0  0
  5  6  1  0  0  0  0
  5 10  1  0  0  0  0
  6  7  1  0  0  0  0
  1 11  1  0  0  0  0
  2 12  1  0  0  0  0
  5 13  1  0  0  0  0
  5 14  1  0  0  0  0
  6 15  1  0  0  0  0
  7 16  1  0  0  0  0
  7 17  1  0  0  0  0
  7 18  1  0  0  0  0
 10 19  1  0  0  0  0
M  END
> <HYBRID receptor title>
5S18(A) > WOY(A-201)

> <HYBRID receptor filename>
5s18.oedu

> <HYBRID Chemgauss4 score>
-6.913907

> <HYBRID receptor title>
5S18(A) > WOY(A-201)

> <HYBRID receptor filename>
5s18.oedu

> <Dock Type>
Hybrid

$$$$
MOL0089_1
  -OEChem-06022418243D

 25 26  0     1  0  0  0  0  0999 V2000
   -2.6432   15.0783    1.3469 C   0  0  0  0  0  0  0  0  0  0  0  0
   -0.3981   14.6632    1.2742 C   0  0  0  0  0  0  0  0  0  0  0  0
   -2.7019   14.9266   -0.0136 C   0  0  0  0  0  0  0  0  0  0  0  0
   -1.5246   14.6455   -0.6930 C   0  0  0  0  0  0  0  0  0  0  0  0
   -3.8427   15.0455   -0.9590 C   0  0  0  0  0  0  0  0  0  0  0  0
   -3.2201   14.4511   -2.2389 C   0  0  0  0  0  0  0  0  0  0  0  0
   -0.9240   14.5788   -4.3338 C   0  0  0  0  0  0  0  0  0  0  0  0
   -1.1436   12.4287   -3.0397 C   0  0  0  0  0  0  0  0  0  0  0  0
   -0.8331   13.9166   -2.9666 C   0  0  0  0  0  0  0  0  0  0  0  0
   -1.4868   14.9464    2.0272 N   0  0  0  0  0  0  0  0  0  0  0  0
   -0.3432   14.5034   -0.0663 N   0  0  0  0  0  0  0  0  0  0  0  0
   -1.7720   14.5455   -2.0749 N   0  0  2  0  0  0  0  0  0  0  0  0
   -3.5186   15.3112    1.9406 H   0  0  0  0  0  0  0  0  0  0  0  0
    0.5381   14.5544    1.8088 H   0  0  0  0  0  0  0  0  0  0  0  0
   -4.7139   14.4697   -0.6345 H   0  0  0  0  0  0  0  0  0  0  0  0
   -4.1115   16.0970   -1.1012 H   0  0  0  0  0  0  0  0  0  0  0  0
   -3.5123   13.3975   -2.3396 H   0  0  0  0  0  0  0  0  0  0  0  0
   -3.5623   14.9825   -3.1333 H   0  0  0  0  0  0  0  0  0  0  0  0
   -1.9219   14.4483   -4.7648 H   0  0  0  0  0  0  0  0  0  0  0  0
   -0.7165   15.6531   -4.2724 H   0  0  0  0  0  0  0  0  0  0  0  0
   -0.1958   14.1423   -5.0261 H   0  0  0  0  0  0  0  0  0  0  0  0
   -2.1459   12.2609   -3.4488 H   0  0  0  0  0  0  0  0  0  0  0  0
   -1.1028   11.9726   -2.0451 H   0  0  0  0  0  0  0  0  0  0  0  0
   -0.4322   11.9025   -3.6859 H   0  0  0  0  0  0  0  0  0  0  0  0
    0.1721   14.0597   -2.5553 H   0  0  0  0  0  0  0  0  0  0  0  0
  1  3  1  0  0  0  0
  1 10  2  0  0  0  0
  2 10  1  0  0  0  0
  2 11  2  0  0  0  0
  3  4  2  0  0  0  0
  3  5  1  0  0  0  0
  4 11  1  0  0  0  0
  4 12  1  0  0  0  0
  5  6  1  0  0  0  0
  6 12  1  0  0  0  0
  7  9  1  0  0  0  0
  8  9  1  0  0  0  0
  9 12  1  0  0  0  0
  1 13  1  0  0  0  0
  2 14  1  0  0  0  0
  5 15  1  0  0  0  0
  5 16  1  0  0  0  0
  6 17  1  0  0  0  0
  6 18  1  0  0  0  0
  7 19  1  0  0  0  0
  7 20  1  0  0  0  0
  7 21  1  0  0  0  0
  8 22  1  0  0  0  0
  8 23  1  0  0  0  0
  8 24  1  0  0  0  0
  9 25  1  0  0  0  0
M  END
> <HYBRID receptor title>
5S18(A) > WOY(A-201)

> <HYBRID receptor filename>
5s18.oedu

> <HYBRID Chemgauss4 score>
-6.909006

> <HYBRID receptor title>
5S18(A) > WOY(A-201)

> <HYBRID receptor filename>
5s18.oedu

> <Dock Type>
Hybrid

$$$$
MOL0107_8
  -OEChem-06022418243D

 26 27  0     1  0  0  0  0  0999 V2000
   -3.1912   14.8475    1.3497 C   0  0  0  0  0  0  0  0  0  0  0  0
   -0.9530   15.0314    0.9314 C   0  0  0  0  0  0  0  0  0  0  0  0
   -3.4102   14.6374    0.0136 C   0  0  0  0  0  0  0  0  0  0  0  0
   -2.3128   14.6247   -0.8363 C   0  0  0  0  0  0  0  0  0  0  0  0
   -4.6646   14.3714   -0.7383 C   0  0  0  0  0  0  0  0  0  0  0  0
   -4.1742   14.5480   -2.1898 C   0  0  0  0  0  0  0  0  0  0  0  0
    0.8818   12.7591   -4.8228 C   0  0  0  0  0  0  0  0  0  0  0  0
   -1.8706   14.6618   -3.2820 C   0  0  0  0  0  0  0  0  0  0  0  0
   -0.8791   13.5281   -3.4699 C   0  0  0  0  0  0  0  0  0  0  0  0
   -1.9537   15.0539    1.8429 N   0  0  0  0  0  0  0  0  0  0  0  0
   -1.0566   14.8249   -0.3997 N   0  0  0  0  0  0  0  0  0  0  0  0
   -2.7244   14.3755   -2.1590 N   0  0  1  0  0  0  0  0  0  0  0  0
   -0.0615   13.7983   -4.6014 O   0  0  0  0  0  0  0  0  0  0  0  0
   -3.9976   14.8588    2.0727 H   0  0  0  0  0  0  0  0  0  0  0  0
    0.0465   15.2010    1.3141 H   0  0  0  0  0  0  0  0  0  0  0  0
   -5.0467   13.3614   -0.5662 H   0  0  0  0  0  0  0  0  0  0  0  0
   -5.4259   15.1159   -0.4844 H   0  0  0  0  0  0  0  0  0  0  0  0
   -4.6240   13.7779   -2.8303 H   0  0  0  0  0  0  0  0  0  0  0  0
   -4.4576   15.5270   -2.5907 H   0  0  0  0  0  0  0  0  0  0  0  0
    1.4913   12.9994   -5.6974 H   0  0  0  0  0  0  0  0  0  0  0  0
    0.3547   11.8149   -4.9811 H   0  0  0  0  0  0  0  0  0  0  0  0
    1.5267   12.6714   -3.9452 H   0  0  0  0  0  0  0  0  0  0  0  0
   -1.3578   15.6097   -3.0901 H   0  0  0  0  0  0  0  0  0  0  0  0
   -2.5000   14.7685   -4.1707 H   0  0  0  0  0  0  0  0  0  0  0  0
   -1.4126   12.5905   -3.6548 H   0  0  0  0  0  0  0  0  0  0  0  0
   -0.2363   13.4059   -2.5921 H   0  0  0  0  0  0  0  0  0  0  0  0
  1  3  1  0  0  0  0
  1 10  2  0  0  0  0
  2 10  1  0  0  0  0
  2 11  2  0  0  0  0
  3  4  2  0  0  0  0
  3  5  1  0  0  0  0
  4 11  1  0  0  0  0
  4 12  1  0  0  0  0
  5  6  1  0  0  0  0
  6 12  1  0  0  0  0
  7 13  1  0  0  0  0
  8  9  1  0  0  0  0
  8 12  1  0  0  0  0
  9 13  1  0  0  0  0
  1 14  1  0  0  0  0
  2 15  1  0  0  0  0
  5 16  1  0  0  0  0
  5 17  1  0  0  0  0
  6 18  1  0  0  0  0
  6 19  1  0  0  0  0
  7 20  1  0  0  0  0
  7 21  1  0  0  0  0
  7 22  1  0  0  0  0
  8 23  1  0  0  0  0
  8 24  1  0  0  0  0
  9 25  1  0  0  0  0
  9 26  1  0  0  0  0
M  END
> <HYBRID receptor title>
5S18(A) > WOY(A-201)

> <HYBRID receptor filename>
5s18.oedu

> <HYBRID Chemgauss4 score>
-6.876224

> <HYBRID receptor title>
5S18(A) > WOY(A-201)

> <HYBRID receptor filename>
5s18.oedu

> <Dock Type>
Hybrid

$$$$
MOL0202_6
  -OEChem-06022418243D

 31 33  0     0  0  0  0  0  0999 V2000
   -3.1536   14.8358    1.5928 C   0  0  0  0  0  0  0  0  0  0  0  0
   -0.9512   15.1500    1.0659 C   0  0  0  0  0  0  0  0  0  0  0  0
   -3.4384   14.6419    0.2653 C   0  0  0  0  0  0  0  0  0  0  0  0
   -2.3848   14.7221   -0.6241 C   0  0  0  0  0  0  0  0  0  0  0  0
   -2.0542   14.5098   -3.0587 C   0  0  0  0  0  0  0  0  0  0  0  0
   -4.7354   14.3496   -0.4010 C   0  0  0  0  0  0  0  0  0  0  0  0
    0.0898   12.6671   -4.6499 C   0  0  0  0  0  0  0  0  0  0  0  0
    0.2402   11.8637   -3.3706 C   0  0  0  0  0  0  0  0  0  0  0  0
    0.1221   14.1070   -4.1567 C   0  0  0  0  0  0  0  0  0  0  0  0
   -0.6044   12.6222   -2.3517 C   0  0  0  0  0  0  0  0  0  0  0  0
   -4.3137   14.2584   -1.8745 C   0  0  0  0  0  0  0  0  0  0  0  0
   -0.6189   14.0758   -2.8235 C   0  0  0  0  0  0  0  0  0  0  0  0
   -1.9025   15.0948    2.0277 N   0  0  0  0  0  0  0  0  0  0  0  0
   -1.1170   14.9763   -0.2623 N   0  0  0  0  0  0  0  0  0  0  0  0
   -2.8578   14.4982   -1.9318 N   0  0  0  0  0  0  0  0  0  0  0  0
   -2.4210   14.8369   -4.1882 O   0  0  0  0  0  0  0  0  0  0  0  0
   -3.9190   14.7895    2.3584 H   0  0  0  0  0  0  0  0  0  0  0  0
    0.0580   15.3565    1.4018 H   0  0  0  0  0  0  0  0  0  0  0  0
   -5.1539   13.4017   -0.0498 H   0  0  0  0  0  0  0  0  0  0  0  0
   -5.4509   15.1619   -0.2436 H   0  0  0  0  0  0  0  0  0  0  0  0
    0.8850   12.4567   -5.3706 H   0  0  0  0  0  0  0  0  0  0  0  0
   -0.8735   12.4489   -5.1257 H   0  0  0  0  0  0  0  0  0  0  0  0
   -0.0845   10.8258   -3.4882 H   0  0  0  0  0  0  0  0  0  0  0  0
    1.2899   11.8561   -3.0532 H   0  0  0  0  0  0  0  0  0  0  0  0
    1.1625   14.4078   -3.9820 H   0  0  0  0  0  0  0  0  0  0  0  0
   -0.3066   14.7964   -4.8907 H   0  0  0  0  0  0  0  0  0  0  0  0
   -1.6129   12.1928   -2.3044 H   0  0  0  0  0  0  0  0  0  0  0  0
   -0.1699   12.5345   -1.3496 H   0  0  0  0  0  0  0  0  0  0  0  0
   -4.5303   13.2703   -2.2954 H   0  0  0  0  0  0  0  0  0  0  0  0
   -4.8245   15.0094   -2.4873 H   0  0  0  0  0  0  0  0  0  0  0  0
   -0.1925   14.7531   -2.1068 H   0  0  0  0  0  0  0  0  0  0  0  0
  1  3  1  0  0  0  0
  1 13  2  0  0  0  0
  2 13  1  0  0  0  0
  2 14  2  0  0  0  0
  3  4  2  0  0  0  0
  3  6  1  0  0  0  0
  4 14  1  0  0  0  0
  4 15  1  0  0  0  0
  5 12  1  0  0  0  0
  5 15  1  0  0  0  0
  5 16  2  0  0  0  0
  6 11  1  0  0  0  0
  7  8  1  0  0  0  0
  7  9  1  0  0  0  0
  8 10  1  0  0  0  0
  9 12  1  0  0  0  0
 10 12  1  0  0  0  0
 11 15  1  0  0  0  0
  1 17  1  0  0  0  0
  2 18  1  0  0  0  0
  6 19  1  0  0  0  0
  6 20  1  0  0  0  0
  7 21  1  0  0  0  0
  7 22  1  0  0  0  0
  8 23  1  0  0  0  0
  8 24  1  0  0  0  0
  9 25  1  0  0  0  0
  9 26  1  0  0  0  0
 10 27  1  0  0  0  0
 10 28  1  0  0  0  0
 11 29  1  0  0  0  0
 11 30  1  0  0  0  0
 12 31  1  0  0  0  0
M  END
> <HYBRID receptor title>
5S18(A) > WOY(A-201)

> <HYBRID receptor filename>
5s18.oedu

> <HYBRID Chemgauss4 score>
-6.843992

> <HYBRID receptor title>
5S18(A) > WOY(A-201)

> <HYBRID receptor filename>
5s18.oedu

> <Dock Type>
Hybrid

$$$$
MOL0209_1
  -OEChem-06022418243D

 23 25  0     1  0  0  0  0  0999 V2000
   -1.1826   14.5343   -0.6535 C   0  0  0  0  0  0  0  0  0  0  0  0
   -0.0788   14.7768    1.3327 C   0  0  0  0  0  0  0  0  0  0  0  0
   -2.3777   14.5561    0.0185 C   0  0  0  0  0  0  0  0  0  0  0  0
   -2.3384   14.6878    1.3985 C   0  0  0  0  0  0  0  0  0  0  0  0
   -3.7917   14.8757   -3.0105 C   0  0  0  0  0  0  0  0  0  0  0  0
   -5.2223   14.9380   -2.5528 C   0  0  0  0  0  0  0  0  0  0  0  0
   -4.5728   14.7818    0.8266 C   0  0  0  0  0  0  0  0  0  0  0  0
   -3.7860   14.4090   -0.4574 C   0  0  1  0  0  0  0  0  0  0  0  0
   -4.1147   15.3050   -1.6099 C   0  0  0  0  0  0  0  0  0  0  0  0
   -0.0014   14.6498   -0.0128 N   0  0  0  0  0  0  0  0  0  0  0  0
   -1.1944   14.8007    2.0934 N   0  0  0  0  0  0  0  0  0  0  0  0
   -3.6353   14.6817    1.9329 N   0  0  0  0  0  0  0  0  0  0  0  0
   -1.1249   14.4173   -1.7289 H   0  0  0  0  0  0  0  0  0  0  0  0
    0.8635   14.8700    1.8597 H   0  0  0  0  0  0  0  0  0  0  0  0
   -3.3563   13.8970   -3.1700 H   0  0  0  0  0  0  0  0  0  0  0  0
   -3.4500   15.6367   -3.7013 H   0  0  0  0  0  0  0  0  0  0  0  0
   -5.8398   15.7410   -2.9362 H   0  0  0  0  0  0  0  0  0  0  0  0
   -5.7450   14.0010   -2.4058 H   0  0  0  0  0  0  0  0  0  0  0  0
   -4.9656   15.8051    0.7791 H   0  0  0  0  0  0  0  0  0  0  0  0
   -5.4240   14.1082    0.9741 H   0  0  0  0  0  0  0  0  0  0  0  0
   -3.9720   13.3601   -0.7185 H   0  0  0  0  0  0  0  0  0  0  0  0
   -3.9871   16.3474   -1.3549 H   0  0  0  0  0  0  0  0  0  0  0  0
   -3.8476   14.8372    2.9061 H   0  0  0  0  0  0  0  0  0  0  0  0
  1  3  1  0  0  0  0
  1 10  2  0  0  0  0
  2 10  1  0  0  0  0
  2 11  2  0  0  0  0
  3  4  2  0  0  0  0
  3  8  1  0  0  0  0
  4 11  1  0  0  0  0
  4 12  1  0  0  0  0
  5  6  1  0  0  0  0
  5  9  1  0  0  0  0
  6  9  1  0  0  0  0
  7  8  1  0  0  0  0
  7 12  1  0  0  0  0
  8  9  1  0  0  0  0
  1 13  1  0  0  0  0
  2 14  1  0  0  0  0
  5 15  1  0  0  0  0
  5 16  1  0  0  0  0
  6 17  1  0  0  0  0
  6 18  1  0  0  0  0
  7 19  1  0  0  0  0
  7 20  1  0  0  0  0
  8 21  1  0  0  0  0
  9 22  1  0  0  0  0
 12 23  1  0  0  0  0
M  END
> <HYBRID receptor title>
5S18(A) > WOY(A-201)

> <HYBRID receptor filename>
5s18.oedu

> <HYBRID Chemgauss4 score>
-6.836734

> <HYBRID receptor title>
5S18(A) > WOY(A-201)

> <HYBRID receptor filename>
5s18.oedu

> <Dock Type>
Hybrid

$$$$
MOL0225_1
  -OEChem-06022418243D

 23 24  0     1  0  0  0  0  0999 V2000
   -2.5562   15.0721    1.2115 C   0  0  0  0  0  0  0  0  0  0  0  0
   -0.3886   14.5386    0.8250 C   0  0  0  0  0  0  0  0  0  0  0  0
   -2.8573   14.9938   -0.1406 C   0  0  0  0  0  0  0  0  0  0  0  0
   -1.7905   14.6916   -0.9844 C   0  0  0  0  0  0  0  0  0  0  0  0
   -4.2420   15.2798   -0.6382 C   0  0  0  0  0  0  0  0  0  0  0  0
   -4.4715   14.7720   -2.0589 C   0  0  0  0  0  0  0  0  0  0  0  0
   -3.3118   15.1807   -2.9594 C   0  0  0  0  0  0  0  0  0  0  0  0
   -1.9977   14.5399   -2.4804 C   0  0  1  0  0  0  0  0  0  0  0  0
   -0.8289   15.1100   -3.2900 C   0  0  0  0  0  0  0  0  0  0  0  0
   -1.3321   14.8487    1.7286 N   0  0  0  0  0  0  0  0  0  0  0  0
   -0.5467   14.4401   -0.5083 N   0  0  0  0  0  0  0  0  0  0  0  0
   -3.3183   15.3238    1.9428 H   0  0  0  0  0  0  0  0  0  0  0  0
    0.6057   14.3462    1.2088 H   0  0  0  0  0  0  0  0  0  0  0  0
   -4.9831   14.8195    0.0261 H   0  0  0  0  0  0  0  0  0  0  0  0
   -4.3996   16.3652   -0.6102 H   0  0  0  0  0  0  0  0  0  0  0  0
   -4.5671   13.6786   -2.0555 H   0  0  0  0  0  0  0  0  0  0  0  0
   -5.4133   15.1755   -2.4476 H   0  0  0  0  0  0  0  0  0  0  0  0
   -3.5191   14.8721   -3.9911 H   0  0  0  0  0  0  0  0  0  0  0  0
   -3.2256   16.2754   -2.9651 H   0  0  0  0  0  0  0  0  0  0  0  0
   -2.0555   13.4608   -2.6783 H   0  0  0  0  0  0  0  0  0  0  0  0
   -0.7493   16.1796   -3.1117 H   0  0  0  0  0  0  0  0  0  0  0  0
   -0.9986   14.9331   -4.3492 H   0  0  0  0  0  0  0  0  0  0  0  0
    0.0956   14.6245   -2.9871 H   0  0  0  0  0  0  0  0  0  0  0  0
  1  3  1  0  0  0  0
  1 10  2  0  0  0  0
  2 10  1  0  0  0  0
  2 11  2  0  0  0  0
  3  4  2  0  0  0  0
  3  5  1  0  0  0  0
  4  8  1  0  0  0  0
  4 11  1  0  0  0  0
  5  6  1  0  0  0  0
  6  7  1  0  0  0  0
  7  8  1  0  0  0  0
  8  9  1  0  0  0  0
  1 12  1  0  0  0  0
  2 13  1  0  0  0  0
  5 14  1  0  0  0  0
  5 15  1  0  0  0  0
  6 16  1  0  0  0  0
  6 17  1  0  0  0  0
  7 18  1  0  0  0  0
  7 19  1  0  0  0  0
  8 20  1  0  0  0  0
  9 21  1  0  0  0  0
  9 22  1  0  0  0  0
  9 23  1  0  0  0  0
M  END
> <HYBRID receptor title>
5S18(A) > WOY(A-201)

> <HYBRID receptor filename>
5s18.oedu

> <HYBRID Chemgauss4 score>
-6.834220

> <HYBRID receptor title>
5S18(A) > WOY(A-201)

> <HYBRID receptor filename>
5s18.oedu

> <Dock Type>
Hybrid

$$$$
MOL0182_1
  -OEChem-06022418243D

 29 31  0     0  0  0  0  0  0999 V2000
    0.8644   13.5317   -4.7961 C   0  0  0  0  0  0  0  0  0  0  0  0
    0.9302   14.8353   -4.3043 C   0  0  0  0  0  0  0  0  0  0  0  0
    0.3631   12.5076   -3.9925 C   0  0  0  0  0  0  0  0  0  0  0  0
    0.4949   15.1149   -3.0089 C   0  0  0  0  0  0  0  0  0  0  0  0
   -0.0723   12.7872   -2.6972 C   0  0  0  0  0  0  0  0  0  0  0  0
    0.1203   14.5220    1.3301 C   0  0  0  0  0  0  0  0  0  0  0  0
   -0.0064   14.0908   -2.2053 C   0  0  0  0  0  0  0  0  0  0  0  0
   -1.7637   14.7381   -0.5733 C   0  0  0  0  0  0  0  0  0  0  0  0
   -0.4581   14.3812   -0.8621 C   0  0  0  0  0  0  0  0  0  0  0  0
   -2.0395   14.9989    0.7648 C   0  0  0  0  0  0  0  0  0  0  0  0
   -2.8059   14.9069   -1.6364 C   0  0  0  0  0  0  0  0  0  0  0  0
   -3.4404   15.3604    1.1878 C   0  0  0  0  0  0  0  0  0  0  0  0
   -4.2217   14.9673   -1.0557 C   0  0  0  0  0  0  0  0  0  0  0  0
    0.5098   14.2603    0.0690 N   0  0  0  0  0  0  0  0  0  0  0  0
   -1.1098   14.8857    1.7404 N   0  0  0  0  0  0  0  0  0  0  0  0
   -4.2670   15.8772    0.0907 N   0  0  0  0  0  0  0  0  0  0  0  0
    1.2019   13.3146   -5.8053 H   0  0  0  0  0  0  0  0  0  0  0  0
    1.3190   15.6331   -4.9304 H   0  0  0  0  0  0  0  0  0  0  0  0
    0.3102   11.4926   -4.3753 H   0  0  0  0  0  0  0  0  0  0  0  0
    0.5524   16.1363   -2.6401 H   0  0  0  0  0  0  0  0  0  0  0  0
   -0.4612   11.9788   -2.0826 H   0  0  0  0  0  0  0  0  0  0  0  0
    0.8781   14.4309    2.0987 H   0  0  0  0  0  0  0  0  0  0  0  0
   -2.6314   15.8270   -2.2063 H   0  0  0  0  0  0  0  0  0  0  0  0
   -2.7339   14.0595   -2.3301 H   0  0  0  0  0  0  0  0  0  0  0  0
   -3.9324   14.4760    1.6077 H   0  0  0  0  0  0  0  0  0  0  0  0
   -3.3843   16.1083    1.9877 H   0  0  0  0  0  0  0  0  0  0  0  0
   -4.9407   15.2920   -1.8186 H   0  0  0  0  0  0  0  0  0  0  0  0
   -4.5313   13.9655   -0.7388 H   0  0  0  0  0  0  0  0  0  0  0  0
   -5.2315   15.9677    0.4105 H   0  0  0  0  0  0  0  0  0  0  0  0
  1  2  1  0  0  0  0
  1  3  2  0  0  0  0
  2  4  2  0  0  0  0
  3  5  1  0  0  0  0
  4  7  1  0  0  0  0
  5  7  2  0  0  0  0
  6 14  2  0  0  0  0
  6 15  1  0  0  0  0
  7  9  1  0  0  0  0
  8  9  2  0  0  0  0
  8 10  1  0  0  0  0
  8 11  1  0  0  0  0
  9 14  1  0  0  0  0
 10 12  1  0  0  0  0
 10 15  2  0  0  0  0
 11 13  1  0  0  0  0
 12 16  1  0  0  0  0
 13 16  1  0  0  0  0
  1 17  1  0  0  0  0
  2 18  1  0  0  0  0
  3 19  1  0  0  0  0
  4 20  1  0  0  0  0
  5 21  1  0  0  0  0
  6 22  1  0  0  0  0
 11 23  1  0  0  0  0
 11 24  1  0  0  0  0
 12 25  1  0  0  0  0
 12 26  1  0  0  0  0
 13 27  1  0  0  0  0
 13 28  1  0  0  0  0
 16 29  1  0  0  0  0
M  END
> <HYBRID receptor title>
5S18(A) > WOY(A-201)

> <HYBRID receptor filename>
5s18.oedu

> <HYBRID Chemgauss4 score>
-6.795486

> <HYBRID receptor title>
5S18(A) > WOY(A-201)

> <HYBRID receptor filename>
5s18.oedu

> <Dock Type>
Hybrid

$$$$
MOL0207_1
  -OEChem-06022418243D

 25 27  0     1  0  0  0  0  0999 V2000
   -2.2441   15.1608    1.1375 C   0  0  0  0  0  0  0  0  0  0  0  0
   -0.0203   14.7516    1.1159 C   0  0  0  0  0  0  0  0  0  0  0  0
   -2.3256   15.0216   -0.2408 C   0  0  0  0  0  0  0  0  0  0  0  0
   -1.1345   14.6971   -0.9020 C   0  0  0  0  0  0  0  0  0  0  0  0
    0.5885   14.8355   -4.1972 C   0  0  0  0  0  0  0  0  0  0  0  0
    1.3461   14.8058   -2.9027 C   0  0  0  0  0  0  0  0  0  0  0  0
   -3.5152   15.2119   -2.3537 C   0  0  0  0  0  0  0  0  0  0  0  0
   -2.4654   14.2621   -2.9175 C   0  0  0  0  0  0  0  0  0  0  0  0
    0.0444   14.0645   -3.0270 C   0  0  0  0  0  0  0  0  0  0  0  0
   -1.1072   15.0353    1.8479 N   0  0  0  0  0  0  0  0  0  0  0  0
    0.0324   14.5764   -0.2180 N   0  0  0  0  0  0  0  0  0  0  0  0
   -3.5284   15.1542   -0.9083 N   0  0  0  0  0  0  0  0  0  0  0  0
   -1.1613   14.5046   -2.3038 N   0  0  2  0  0  0  0  0  0  0  0  0
   -3.1240   15.3918    1.7310 H   0  0  0  0  0  0  0  0  0  0  0  0
    0.9145   14.6504    1.6531 H   0  0  0  0  0  0  0  0  0  0  0  0
    0.1035   15.7633   -4.4751 H   0  0  0  0  0  0  0  0  0  0  0  0
    0.9897   14.2717   -5.0304 H   0  0  0  0  0  0  0  0  0  0  0  0
    2.2572   14.2216   -2.8641 H   0  0  0  0  0  0  0  0  0  0  0  0
    1.3676   15.7133   -2.3120 H   0  0  0  0  0  0  0  0  0  0  0  0
   -3.3058   16.2392   -2.6760 H   0  0  0  0  0  0  0  0  0  0  0  0
   -4.5059   14.9471   -2.7384 H   0  0  0  0  0  0  0  0  0  0  0  0
   -2.7635   13.2199   -2.7447 H   0  0  0  0  0  0  0  0  0  0  0  0
   -2.4058   14.4036   -4.0031 H   0  0  0  0  0  0  0  0  0  0  0  0
    0.1020   12.9832   -3.0855 H   0  0  0  0  0  0  0  0  0  0  0  0
   -4.3502   15.4629   -0.4032 H   0  0  0  0  0  0  0  0  0  0  0  0
  1  3  1  0  0  0  0
  1 10  2  0  0  0  0
  2 10  1  0  0  0  0
  2 11  2  0  0  0  0
  3  4  2  0  0  0  0
  3 12  1  0  0  0  0
  4 11  1  0  0  0  0
  4 13  1  0  0  0  0
  5  6  1  0  0  0  0
  5  9  1  0  0  0  0
  6  9  1  0  0  0  0
  7  8  1  0  0  0  0
  7 12  1  0  0  0  0
  8 13  1  0  0  0  0
  9 13  1  0  0  0  0
  1 14  1  0  0  0  0
  2 15  1  0  0  0  0
  5 16  1  0  0  0  0
  5 17  1  0  0  0  0
  6 18  1  0  0  0  0
  6 19  1  0  0  0  0
  7 20  1  0  0  0  0
  7 21  1  0  0  0  0
  8 22  1  0  0  0  0
  8 23  1  0  0  0  0
  9 24  1  0  0  0  0
 12 25  1  0  0  0  0
M  END
> <HYBRID receptor title>
5S18(A) > WOY(A-201)

> <HYBRID receptor filename>
5s18.oedu

> <HYBRID Chemgauss4 score>
-6.741904

> <HYBRID receptor title>
5S18(A) > WOY(A-201)

> <HYBRID receptor filename>
5s18.oedu

> <Dock Type>
Hybrid

$$$$
MOL0027_1
  -OEChem-06022418243D

 21 22  0     0  0  0  0  0  0999 V2000
   -0.2201   14.7599    1.0876 C   0  0  0  0  0  0  0  0  0  0  0  0
   -2.6075   14.7978   -0.1444 C   0  0  0  0  0  0  0  0  0  0  0  0
   -1.4295   14.5348   -0.8356 C   0  0  0  0  0  0  0  0  0  0  0  0
   -2.4733   15.0180    1.2153 C   0  0  0  0  0  0  0  0  0  0  0  0
   -3.9407   14.7700   -0.8276 C   0  0  0  0  0  0  0  0  0  0  0  0
   -1.4645   14.3169   -2.3267 C   0  0  0  0  0  0  0  0  0  0  0  0
   -3.8127   14.8490   -2.3516 C   0  0  0  0  0  0  0  0  0  0  0  0
   -0.2164   14.5217   -0.2380 N   0  0  0  0  0  0  0  0  0  0  0  0
   -1.2908   15.0096    1.8633 N   0  0  0  0  0  0  0  0  0  0  0  0
   -2.7856   13.9208   -2.8285 N   0  0  0  0  0  0  0  0  0  0  0  0
   -3.6356   15.2775    1.9822 N   0  0  0  0  0  0  0  0  0  0  0  0
    0.7432   14.7489    1.5824 H   0  0  0  0  0  0  0  0  0  0  0  0
   -4.4836   13.8510   -0.5776 H   0  0  0  0  0  0  0  0  0  0  0  0
   -4.5326   15.6213   -0.4678 H   0  0  0  0  0  0  0  0  0  0  0  0
   -1.1606   15.2384   -2.8356 H   0  0  0  0  0  0  0  0  0  0  0  0
   -0.7277   13.5476   -2.5868 H   0  0  0  0  0  0  0  0  0  0  0  0
   -4.7725   14.6235   -2.8339 H   0  0  0  0  0  0  0  0  0  0  0  0
   -3.5465   15.8703   -2.6450 H   0  0  0  0  0  0  0  0  0  0  0  0
   -2.7739   13.9284   -3.8486 H   0  0  0  0  0  0  0  0  0  0  0  0
   -4.5152   15.3418    1.5172 H   0  0  0  0  0  0  0  0  0  0  0  0
   -3.5363   15.4829    2.9528 H   0  0  0  0  0  0  0  0  0  0  0  0
  1  8  1  0  0  0  0
  1  9  2  0  0  0  0
  2  3  1  0  0  0  0
  2  4  2  0  0  0  0
  2  5  1  0  0  0  0
  3  6  1  0  0  0  0
  3  8  2  0  0  0  0
  4  9  1  0  0  0  0
  4 11  1  0  0  0  0
  5  7  1  0  0  0  0
  6 10  1  0  0  0  0
  7 10  1  0  0  0  0
  1 12  1  0  0  0  0
  5 13  1  0  0  0  0
  5 14  1  0  0  0  0
  6 15  1  0  0  0  0
  6 16  1  0  0  0  0
  7 17  1  0  0  0  0
  7 18  1  0  0  0  0
 10 19  1  0  0  0  0
 11 20  1  0  0  0  0
 11 21  1  0  0  0  0
M  END
> <HYBRID receptor title>
5S18(A) > WOY(A-201)

> <HYBRID receptor filename>
5s18.oedu

> <HYBRID Chemgauss4 score>
-6.725423

> <HYBRID receptor title>
5S18(A) > WOY(A-201)

> <HYBRID receptor filename>
5s18.oedu

> <Dock Type>
Hybrid

$$$$
MOL0194_2
  -OEChem-06022418243D

 31 33  0     1  0  0  0  0  0999 V2000
   -1.3314   14.4392   -0.8080 C   0  0  0  0  0  0  0  0  0  0  0  0
   -0.1205   14.8081    1.0946 C   0  0  0  0  0  0  0  0  0  0  0  0
   -2.4846   14.7013   -0.1139 C   0  0  0  0  0  0  0  0  0  0  0  0
   -2.3694   15.0126    1.2325 C   0  0  0  0  0  0  0  0  0  0  0  0
   -4.5754   13.1822   -4.6759 C   0  0  0  0  0  0  0  0  0  0  0  0
   -3.8704   14.3842   -5.2973 C   0  0  0  0  0  0  0  0  0  0  0  0
   -4.8713   13.5924   -3.2408 C   0  0  0  0  0  0  0  0  0  0  0  0
   -3.8034   15.4233   -4.1878 C   0  0  0  0  0  0  0  0  0  0  0  0
   -4.5991   15.3074    0.7131 C   0  0  0  0  0  0  0  0  0  0  0  0
   -3.9198   14.6687   -0.5268 C   0  0  1  0  0  0  0  0  0  0  0  0
   -4.2207   15.4242   -1.8115 C   0  0  0  0  0  0  0  0  0  0  0  0
   -0.1179   14.4916   -0.2215 N   0  0  0  0  0  0  0  0  0  0  0  0
   -1.1909   15.0743    1.8741 N   0  0  0  0  0  0  0  0  0  0  0  0
   -3.6330   15.2414    1.7970 N   0  0  0  0  0  0  0  0  0  0  0  0
   -3.8513   14.6076   -2.9735 N   0  0  0  0  0  0  0  0  0  0  0  0
   -1.3361   14.1723   -1.8578 H   0  0  0  0  0  0  0  0  0  0  0  0
    0.8483   14.8519    1.5780 H   0  0  0  0  0  0  0  0  0  0  0  0
   -5.4920   12.9254   -5.2167 H   0  0  0  0  0  0  0  0  0  0  0  0
   -3.9131   12.3088   -4.7032 H   0  0  0  0  0  0  0  0  0  0  0  0
   -2.8640   14.0963   -5.6228 H   0  0  0  0  0  0  0  0  0  0  0  0
   -4.4102   14.7642   -6.1707 H   0  0  0  0  0  0  0  0  0  0  0  0
   -5.8801   14.0145   -3.1796 H   0  0  0  0  0  0  0  0  0  0  0  0
   -4.7993   12.7435   -2.5579 H   0  0  0  0  0  0  0  0  0  0  0  0
   -2.8904   16.0190   -4.2507 H   0  0  0  0  0  0  0  0  0  0  0  0
   -4.6693   16.0905   -4.2554 H   0  0  0  0  0  0  0  0  0  0  0  0
   -4.8600   16.3570    0.5302 H   0  0  0  0  0  0  0  0  0  0  0  0
   -5.5194   14.7749    0.9753 H   0  0  0  0  0  0  0  0  0  0  0  0
   -4.2360   13.6223   -0.6199 H   0  0  0  0  0  0  0  0  0  0  0  0
   -5.2898   15.6400   -1.8241 H   0  0  0  0  0  0  0  0  0  0  0  0
   -3.6384   16.3463   -1.7955 H   0  0  0  0  0  0  0  0  0  0  0  0
   -3.7824   15.5526    2.7443 H   0  0  0  0  0  0  0  0  0  0  0  0
  1  3  1  0  0  0  0
  1 12  2  0  0  0  0
  2 12  1  0  0  0  0
  2 13  2  0  0  0  0
  3  4  2  0  0  0  0
  3 10  1  0  0  0  0
  4 13  1  0  0  0  0
  4 14  1  0  0  0  0
  5  6  1  0  0  0  0
  5  7  1  0  0  0  0
  6  8  1  0  0  0  0
  7 15  1  0  0  0  0
  8 15  1  0  0  0  0
  9 10  1  0  0  0  0
  9 14  1  0  0  0  0
 10 11  1  0  0  0  0
 11 15  1  0  0  0  0
  1 16  1  0  0  0  0
  2 17  1  0  0  0  0
  5 18  1  0  0  0  0
  5 19  1  0  0  0  0
  6 20  1  0  0  0  0
  6 21  1  0  0  0  0
  7 22  1  0  0  0  0
  7 23  1  0  0  0  0
  8 24  1  0  0  0  0
  8 25  1  0  0  0  0
  9 26  1  0  0  0  0
  9 27  1  0  0  0  0
 10 28  1  0  0  0  0
 11 29  1  0  0  0  0
 11 30  1  0  0  0  0
 14 31  1  0  0  0  0
M  END
> <HYBRID receptor title>
5S18(A) > WOY(A-201)

> <HYBRID receptor filename>
5s18.oedu

> <HYBRID Chemgauss4 score>
-6.691841

> <HYBRID receptor title>
5S18(A) > WOY(A-201)

> <HYBRID receptor filename>
5s18.oedu

> <Dock Type>
Hybrid

$$$$
MOL0126_1
  -OEChem-06022418243D

 32 34  0     1  0  0  0  0  0999 V2000
   -2.6697   15.1955    1.2424 C   0  0  0  0  0  0  0  0  0  0  0  0
   -0.5525   14.4628    0.8911 C   0  0  0  0  0  0  0  0  0  0  0  0
   -2.9833   15.0642   -0.1040 C   0  0  0  0  0  0  0  0  0  0  0  0
   -1.9531   14.5918   -0.9147 C   0  0  0  0  0  0  0  0  0  0  0  0
   -2.1274   14.4576   -2.4043 C   0  0  0  0  0  0  0  0  0  0  0  0
   -3.5876   14.4547   -2.8515 C   0  0  0  0  0  0  0  0  0  0  0  0
   -7.5281   13.6802    0.0550 C   0  0  0  0  0  0  0  0  0  0  0  0
   -6.7488   13.4266    1.3418 C   0  0  0  0  0  0  0  0  0  0  0  0
   -4.3575   15.5715   -2.1500 C   0  0  0  0  0  0  0  0  0  0  0  0
   -6.6441   14.6038   -0.7700 C   0  0  0  0  0  0  0  0  0  0  0  0
   -5.4559   14.2137    1.1859 C   0  0  0  0  0  0  0  0  0  0  0  0
   -4.3629   15.3756   -0.6243 C   0  0  1  0  0  0  0  0  0  0  0  0
   -1.4648   14.9049    1.7726 N   0  0  0  0  0  0  0  0  0  0  0  0
   -0.7237   14.2904   -0.4328 N   0  0  0  0  0  0  0  0  0  0  0  0
   -5.3022   14.3064   -0.2668 N   0  0  0  0  0  0  0  0  0  0  0  0
   -3.4062   15.5481    1.9582 H   0  0  0  0  0  0  0  0  0  0  0  0
    0.4263   14.2209    1.2870 H   0  0  0  0  0  0  0  0  0  0  0  0
   -1.6076   15.3002   -2.8773 H   0  0  0  0  0  0  0  0  0  0  0  0
   -1.6407   13.5389   -2.7517 H   0  0  0  0  0  0  0  0  0  0  0  0
   -3.6365   14.5912   -3.9380 H   0  0  0  0  0  0  0  0  0  0  0  0
   -4.0445   13.4818   -2.6358 H   0  0  0  0  0  0  0  0  0  0  0  0
   -7.7438   12.7491   -0.4789 H   0  0  0  0  0  0  0  0  0  0  0  0
   -8.4845   14.1625    0.2894 H   0  0  0  0  0  0  0  0  0  0  0  0
   -7.3243   13.7893    2.2015 H   0  0  0  0  0  0  0  0  0  0  0  0
   -6.5533   12.3601    1.4941 H   0  0  0  0  0  0  0  0  0  0  0  0
   -3.8895   16.5354   -2.3916 H   0  0  0  0  0  0  0  0  0  0  0  0
   -5.3828   15.6213   -2.5366 H   0  0  0  0  0  0  0  0  0  0  0  0
   -6.7448   14.3596   -1.8363 H   0  0  0  0  0  0  0  0  0  0  0  0
   -6.9141   15.6560   -0.6276 H   0  0  0  0  0  0  0  0  0  0  0  0
   -5.5236   15.2005    1.6574 H   0  0  0  0  0  0  0  0  0  0  0  0
   -4.6268   13.6626    1.6511 H   0  0  0  0  0  0  0  0  0  0  0  0
   -4.7164   16.2986   -0.1715 H   0  0  0  0  0  0  0  0  0  0  0  0
  1  3  1  0  0  0  0
  1 13  2  0  0  0  0
  2 13  1  0  0  0  0
  2 14  2  0  0  0  0
  3  4  2  0  0  0  0
  3 12  1  0  0  0  0
  4  5  1  0  0  0  0
  4 14  1  0  0  0  0
  5  6  1  0  0  0  0
  6  9  1  0  0  0  0
  7  8  1  0  0  0  0
  7 10  1  0  0  0  0
  8 11  1  0  0  0  0
  9 12  1  0  0  0  0
 10 15  1  0  0  0  0
 11 15  1  0  0  0  0
 12 15  1  0  0  0  0
  1 16  1  0  0  0  0
  2 17  1  0  0  0  0
  5 18  1  0  0  0  0
  5 19  1  0  0  0  0
  6 20  1  0  0  0  0
  6 21  1  0  0  0  0
  7 22  1  0  0  0  0
  7 23  1  0  0  0  0
  8 24  1  0  0  0  0
  8 25  1  0  0  0  0
  9 26  1  0  0  0  0
  9 27  1  0  0  0  0
 10 28  1  0  0  0  0
 10 29  1  0  0  0  0
 11 30  1  0  0  0  0
 11 31  1  0  0  0  0
 12 32  1  0  0  0  0
M  END
> <HYBRID receptor title>
5S18(A) > WOY(A-201)

> <HYBRID receptor filename>
5s18.oedu

> <HYBRID Chemgauss4 score>
-6.691730

> <HYBRID receptor title>
5S18(A) > WOY(A-201)

> <HYBRID receptor filename>
5s18.oedu

> <Dock Type>
Hybrid

$$$$
MOL0001_1
  -OEChem-06022418243D

 19 20  0     1  0  0  0  0  0999 V2000
   -1.4133   14.8805   -0.8964 C   0  0  0  0  0  0  0  0  0  0  0  0
   -0.1836   14.4961    0.9911 C   0  0  0  0  0  0  0  0  0  0  0  0
   -2.5249   15.0842   -0.1197 C   0  0  0  0  0  0  0  0  0  0  0  0
   -2.3777   14.9803    1.2552 C   0  0  0  0  0  0  0  0  0  0  0  0
   -4.6393   15.2638    0.8900 C   0  0  0  0  0  0  0  0  0  0  0  0
   -3.9259   15.4632   -0.4731 C   0  0  2  0  0  0  0  0  0  0  0  0
   -4.5418   14.6257   -1.5826 C   0  0  0  0  0  0  0  0  0  0  0  0
   -0.2138   14.5758   -0.3599 N   0  0  0  0  0  0  0  0  0  0  0  0
   -1.2093   14.6858    1.8490 N   0  0  0  0  0  0  0  0  0  0  0  0
   -3.5976   15.2250    1.9030 N   0  0  0  0  0  0  0  0  0  0  0  0
   -1.4400   14.9592   -1.9764 H   0  0  0  0  0  0  0  0  0  0  0  0
    0.7746   14.2531    1.4346 H   0  0  0  0  0  0  0  0  0  0  0  0
   -5.3468   16.0764    1.0861 H   0  0  0  0  0  0  0  0  0  0  0  0
   -5.1977   14.3201    0.9151 H   0  0  0  0  0  0  0  0  0  0  0  0
   -3.9454   16.5258   -0.7452 H   0  0  0  0  0  0  0  0  0  0  0  0
   -4.5221   13.5691   -1.3112 H   0  0  0  0  0  0  0  0  0  0  0  0
   -3.9827   14.7606   -2.5098 H   0  0  0  0  0  0  0  0  0  0  0  0
   -5.5773   14.9262   -1.7498 H   0  0  0  0  0  0  0  0  0  0  0  0
   -3.7401   15.1322    2.8968 H   0  0  0  0  0  0  0  0  0  0  0  0
  1  3  1  0  0  0  0
  1  8  2  0  0  0  0
  2  8  1  0  0  0  0
  2  9  2  0  0  0  0
  3  4  2  0  0  0  0
  3  6  1  0  0  0  0
  4  9  1  0  0  0  0
  4 10  1  0  0  0  0
  5  6  1  0  0  0  0
  5 10  1  0  0  0  0
  6  7  1  0  0  0  0
  1 11  1  0  0  0  0
  2 12  1  0  0  0  0
  5 13  1  0  0  0  0
  5 14  1  0  0  0  0
  6 15  1  0  0  0  0
  7 16  1  0  0  0  0
  7 17  1  0  0  0  0
  7 18  1  0  0  0  0
 10 19  1  0  0  0  0
M  END
> <HYBRID receptor title>
5S18(A) > WOY(A-201)

> <HYBRID receptor filename>
5s18.oedu

> <HYBRID Chemgauss4 score>
-6.683917

> <HYBRID receptor title>
5S18(A) > WOY(A-201)

> <HYBRID receptor filename>
5s18.oedu

> <Dock Type>
Hybrid

$$$$
MOL0222_7
  -OEChem-06022418243D

 31 33  0     0  0  0  0  0  0999 V2000
    1.0307   13.0099   -5.0810 C   0  0  0  0  0  0  0  0  0  0  0  0
    1.2488   14.3351   -4.7044 C   0  0  0  0  0  0  0  0  0  0  0  0
   -0.0339   12.2949   -4.5320 C   0  0  0  0  0  0  0  0  0  0  0  0
    0.4025   14.9454   -3.7787 C   0  0  0  0  0  0  0  0  0  0  0  0
   -0.8802   12.9052   -3.6063 C   0  0  0  0  0  0  0  0  0  0  0  0
   -0.2873   15.0174    1.0487 C   0  0  0  0  0  0  0  0  0  0  0  0
   -2.6710   15.0288   -0.1912 C   0  0  0  0  0  0  0  0  0  0  0  0
   -0.6620   14.2304   -3.2296 C   0  0  0  0  0  0  0  0  0  0  0  0
   -2.5629   15.1333    1.1916 C   0  0  0  0  0  0  0  0  0  0  0  0
   -1.4769   14.9390   -0.8849 C   0  0  0  0  0  0  0  0  0  0  0  0
   -4.0002   15.0843   -0.8804 C   0  0  0  0  0  0  0  0  0  0  0  0
   -3.8064   15.2003    2.0408 C   0  0  0  0  0  0  0  0  0  0  0  0
   -5.1641   14.8414    0.0848 C   0  0  0  0  0  0  0  0  0  0  0  0
   -1.3745   15.1185    1.8371 N   0  0  0  0  0  0  0  0  0  0  0  0
   -0.2650   14.9269   -0.2936 N   0  0  0  0  0  0  0  0  0  0  0  0
   -4.9960   15.6387    1.3013 N   0  0  0  0  0  0  0  0  0  0  0  0
   -1.5144   14.8446   -2.2977 N   0  0  0  0  0  0  0  0  0  0  0  0
    1.6899   12.5346   -5.8017 H   0  0  0  0  0  0  0  0  0  0  0  0
    2.0776   14.8914   -5.1318 H   0  0  0  0  0  0  0  0  0  0  0  0
   -0.2036   11.2629   -4.8254 H   0  0  0  0  0  0  0  0  0  0  0  0
    0.5811   15.9784   -3.4918 H   0  0  0  0  0  0  0  0  0  0  0  0
   -1.7067   12.3383   -3.1853 H   0  0  0  0  0  0  0  0  0  0  0  0
    0.6728   15.0085    1.5497 H   0  0  0  0  0  0  0  0  0  0  0  0
   -4.1484   16.0611   -1.3553 H   0  0  0  0  0  0  0  0  0  0  0  0
   -4.0148   14.3196   -1.6675 H   0  0  0  0  0  0  0  0  0  0  0  0
   -4.0073   14.2120    2.4692 H   0  0  0  0  0  0  0  0  0  0  0  0
   -3.6233   15.8832    2.8789 H   0  0  0  0  0  0  0  0  0  0  0  0
   -6.1216   15.0861   -0.3926 H   0  0  0  0  0  0  0  0  0  0  0  0
   -5.2071   13.7788    0.3477 H   0  0  0  0  0  0  0  0  0  0  0  0
   -5.8198   15.5264    1.8927 H   0  0  0  0  0  0  0  0  0  0  0  0
   -2.3136   15.3121   -2.7096 H   0  0  0  0  0  0  0  0  0  0  0  0
  1  2  1  0  0  0  0
  1  3  2  0  0  0  0
  2  4  2  0  0  0  0
  3  5  1  0  0  0  0
  4  8  1  0  0  0  0
  5  8  2  0  0  0  0
  6 14  1  0  0  0  0
  6 15  2  0  0  0  0
  7  9  1  0  0  0  0
  7 10  2  0  0  0  0
  7 11  1  0  0  0  0
  8 17  1  0  0  0  0
  9 12  1  0  0  0  0
  9 14  2  0  0  0  0
 10 15  1  0  0  0  0
 10 17  1  0  0  0  0
 11 13  1  0  0  0  0
 12 16  1  0  0  0  0
 13 16  1  0  0  0  0
  1 18  1  0  0  0  0
  2 19  1  0  0  0  0
  3 20  1  0  0  0  0
  4 21  1  0  0  0  0
  5 22  1  0  0  0  0
  6 23  1  0  0  0  0
 11 24  1  0  0  0  0
 11 25  1  0  0  0  0
 12 26  1  0  0  0  0
 12 27  1  0  0  0  0
 13 28  1  0  0  0  0
 13 29  1  0  0  0  0
 16 30  1  0  0  0  0
 17 31  1  0  0  0  0
M  END
> <HYBRID receptor title>
5S18(A) > WOY(A-201)

> <HYBRID receptor filename>
5s18.oedu

> <HYBRID Chemgauss4 score>
-6.658487

> <HYBRID receptor title>
5S18(A) > WOY(A-201)

> <HYBRID receptor filename>
5s18.oedu

> <Dock Type>
Hybrid

$$$$
MOL0208_1
  -OEChem-06022418243D

 21 22  0     1  0  0  0  0  0999 V2000
   -1.4815   14.4725   -0.9824 C   0  0  0  0  0  0  0  0  0  0  0  0
   -0.2144   14.9134    0.8424 C   0  0  0  0  0  0  0  0  0  0  0  0
   -2.6674   14.6841   -0.2860 C   0  0  0  0  0  0  0  0  0  0  0  0
   -2.4974   15.0524    1.0574 C   0  0  0  0  0  0  0  0  0  0  0  0
   -4.8974   15.5051    1.2102 C   0  0  0  0  0  0  0  0  0  0  0  0
   -5.0732   14.5158    0.0656 C   0  0  0  0  0  0  0  0  0  0  0  0
   -4.1159   14.1018   -2.2114 C   0  0  0  0  0  0  0  0  0  0  0  0
   -0.2443   14.5770   -0.4534 N   0  0  0  0  0  0  0  0  0  0  0  0
   -1.2733   15.1566    1.6329 N   0  0  0  0  0  0  0  0  0  0  0  0
   -3.6129   15.3162    1.8448 N   0  0  0  0  0  0  0  0  0  0  0  0
   -3.9315   14.5653   -0.8459 N   0  0  2  0  0  0  0  0  0  0  0  0
   -1.4763   14.1925   -2.0314 H   0  0  0  0  0  0  0  0  0  0  0  0
    0.7627   15.0004    1.3008 H   0  0  0  0  0  0  0  0  0  0  0  0
   -4.9732   16.5333    0.8360 H   0  0  0  0  0  0  0  0  0  0  0  0
   -5.6940   15.3694    1.9493 H   0  0  0  0  0  0  0  0  0  0  0  0
   -5.1811   13.4968    0.4586 H   0  0  0  0  0  0  0  0  0  0  0  0
   -6.0001   14.7550   -0.4687 H   0  0  0  0  0  0  0  0  0  0  0  0
   -5.1894   14.0829   -2.4509 H   0  0  0  0  0  0  0  0  0  0  0  0
   -3.5981   14.7830   -2.9027 H   0  0  0  0  0  0  0  0  0  0  0  0
   -3.6995   13.0889   -2.3141 H   0  0  0  0  0  0  0  0  0  0  0  0
   -3.4709   15.5998    2.8062 H   0  0  0  0  0  0  0  0  0  0  0  0
  1  3  1  0  0  0  0
  1  8  2  0  0  0  0
  2  8  1  0  0  0  0
  2  9  2  0  0  0  0
  3  4  2  0  0  0  0
  3 11  1  0  0  0  0
  4  9  1  0  0  0  0
  4 10  1  0  0  0  0
  5  6  1  0  0  0  0
  5 10  1  0  0  0  0
  6 11  1  0  0  0  0
  7 11  1  0  0  0  0
  1 12  1  0  0  0  0
  2 13  1  0  0  0  0
  5 14  1  0  0  0  0
  5 15  1  0  0  0  0
  6 16  1  0  0  0  0
  6 17  1  0  0  0  0
  7 18  1  0  0  0  0
  7 19  1  0  0  0  0
  7 20  1  0  0  0  0
 10 21  1  0  0  0  0
M  END
> <HYBRID receptor title>
5S18(A) > WOY(A-201)

> <HYBRID receptor filename>
5s18.oedu

> <HYBRID Chemgauss4 score>
-6.630207

> <HYBRID receptor title>
5S18(A) > WOY(A-201)

> <HYBRID receptor filename>
5s18.oedu

> <Dock Type>
Hybrid

$$$$
MOL0092_1
  -OEChem-06022418243D

 19 20  0     0  0  0  0  0  0999 V2000
   -0.1368   14.7963    1.2496 C   0  0  0  0  0  0  0  0  0  0  0  0
   -2.3378   14.8475   -0.2318 C   0  0  0  0  0  0  0  0  0  0  0  0
   -1.1228   14.5701   -0.8001 C   0  0  0  0  0  0  0  0  0  0  0  0
   -2.3764   15.0903    1.1318 C   0  0  0  0  0  0  0  0  0  0  0  0
   -3.7026   14.9002   -0.8178 C   0  0  0  0  0  0  0  0  0  0  0  0
   -4.5183   15.4740    0.3610 C   0  0  0  0  0  0  0  0  0  0  0  0
   -1.0040   14.2817   -2.2561 C   0  0  0  0  0  0  0  0  0  0  0  0
    0.0122   14.5417   -0.0723 N   0  0  0  0  0  0  0  0  0  0  0  0
   -1.2824   15.0714    1.9106 N   0  0  0  0  0  0  0  0  0  0  0  0
   -3.6918   15.3416    1.5490 N   0  0  0  0  0  0  0  0  0  0  0  0
    0.7680   14.7755    1.8454 H   0  0  0  0  0  0  0  0  0  0  0  0
   -3.7528   15.5573   -1.6906 H   0  0  0  0  0  0  0  0  0  0  0  0
   -4.0455   13.8938   -1.0786 H   0  0  0  0  0  0  0  0  0  0  0  0
   -4.7359   16.5347    0.1871 H   0  0  0  0  0  0  0  0  0  0  0  0
   -5.4723   14.9500    0.4781 H   0  0  0  0  0  0  0  0  0  0  0  0
   -0.8321   15.2085   -2.8187 H   0  0  0  0  0  0  0  0  0  0  0  0
   -0.1732   13.5930   -2.4619 H   0  0  0  0  0  0  0  0  0  0  0  0
   -1.9136   13.8042   -2.6456 H   0  0  0  0  0  0  0  0  0  0  0  0
   -3.9510   15.6071    2.4863 H   0  0  0  0  0  0  0  0  0  0  0  0
  1  8  2  0  0  0  0
  1  9  1  0  0  0  0
  2  3  2  0  0  0  0
  2  4  1  0  0  0  0
  2  5  1  0  0  0  0
  3  7  1  0  0  0  0
  3  8  1  0  0  0  0
  4  9  2  0  0  0  0
  4 10  1  0  0  0  0
  5  6  1  0  0  0  0
  6 10  1  0  0  0  0
  1 11  1  0  0  0  0
  5 12  1  0  0  0  0
  5 13  1  0  0  0  0
  6 14  1  0  0  0  0
  6 15  1  0  0  0  0
  7 16  1  0  0  0  0
  7 17  1  0  0  0  0
  7 18  1  0  0  0  0
 10 19  1  0  0  0  0
M  END
> <HYBRID receptor title>
5S18(A) > WOY(A-201)

> <HYBRID receptor filename>
5s18.oedu

> <HYBRID Chemgauss4 score>
-6.629146

> <HYBRID receptor title>
5S18(A) > WOY(A-201)

> <HYBRID receptor filename>
5s18.oedu

> <Dock Type>
Hybrid

$$$$
MOL0181_1
  -OEChem-06022418243D

 20 21  0     1  0  0  0  0  0999 V2000
   -1.9042   14.5320   -0.9315 C   0  0  0  0  0  0  0  0  0  0  0  0
   -0.5456   14.8992    0.8689 C   0  0  0  0  0  0  0  0  0  0  0  0
   -2.9978   14.8042   -0.1503 C   0  0  0  0  0  0  0  0  0  0  0  0
   -2.7743   15.1359    1.1774 C   0  0  0  0  0  0  0  0  0  0  0  0
   -5.0665   14.9864    0.9496 C   0  0  0  0  0  0  0  0  0  0  0  0
   -4.4555   14.8658   -0.4712 C   0  0  2  0  0  0  0  0  0  0  0  0
   -4.9819   13.6599   -1.2330 C   0  0  0  0  0  0  0  0  0  0  0  0
   -0.6489   14.5676   -0.4395 N   0  0  0  0  0  0  0  0  0  0  0  0
   -1.5486   15.1941    1.7239 N   0  0  0  0  0  0  0  0  0  0  0  0
   -3.9870   15.3938    1.8336 N   0  0  0  0  0  0  0  0  0  0  0  0
   -4.6589   13.8109   -2.6049 O   0  0  0  0  0  0  0  0  0  0  0  0
   -1.9917   14.2808   -1.9816 H   0  0  0  0  0  0  0  0  0  0  0  0
    0.4579   14.9325    1.2762 H   0  0  0  0  0  0  0  0  0  0  0  0
   -5.8830   15.7160    0.9659 H   0  0  0  0  0  0  0  0  0  0  0  0
   -5.4684   14.0261    1.2952 H   0  0  0  0  0  0  0  0  0  0  0  0
   -4.6535   15.7859   -1.0348 H   0  0  0  0  0  0  0  0  0  0  0  0
   -6.0663   13.5909   -1.1271 H   0  0  0  0  0  0  0  0  0  0  0  0
   -4.5207   12.7448   -0.8563 H   0  0  0  0  0  0  0  0  0  0  0  0
   -4.0682   15.5828    2.8207 H   0  0  0  0  0  0  0  0  0  0  0  0
   -5.0060   13.0288   -3.0660 H   0  0  0  0  0  0  0  0  0  0  0  0
  1  3  1  0  0  0  0
  1  8  2  0  0  0  0
  2  8  1  0  0  0  0
  2  9  2  0  0  0  0
  3  4  2  0  0  0  0
  3  6  1  0  0  0  0
  4  9  1  0  0  0  0
  4 10  1  0  0  0  0
  5  6  1  0  0  0  0
  5 10  1  0  0  0  0
  6  7  1  0  0  0  0
  7 11  1  0  0  0  0
  1 12  1  0  0  0  0
  2 13  1  0  0  0  0
  5 14  1  0  0  0  0
  5 15  1  0  0  0  0
  6 16  1  0  0  0  0
  7 17  1  0  0  0  0
  7 18  1  0  0  0  0
 10 19  1  0  0  0  0
 11 20  1  0  0  0  0
M  END
> <HYBRID receptor title>
5S18(A) > WOY(A-201)

> <HYBRID receptor filename>
5s18.oedu

> <HYBRID Chemgauss4 score>
-6.613955

> <HYBRID receptor title>
5S18(A) > WOY(A-201)

> <HYBRID receptor filename>
5s18.oedu

> <Dock Type>
Hybrid

$$$$
MOL0065_1
  -OEChem-06022418243D

 21 22  0     0  0  0  0  0  0999 V2000
    0.1745   14.9801    1.0901 C   0  0  0  0  0  0  0  0  0  0  0  0
   -2.1175   14.7633   -0.2296 C   0  0  0  0  0  0  0  0  0  0  0  0
   -2.0868   15.0019    1.1349 C   0  0  0  0  0  0  0  0  0  0  0  0
   -0.9219   14.6333   -0.8854 C   0  0  0  0  0  0  0  0  0  0  0  0
   -3.5173   14.6501   -0.7160 C   0  0  0  0  0  0  0  0  0  0  0  0
   -4.3092   15.1235    0.5222 C   0  0  0  0  0  0  0  0  0  0  0  0
    0.2660   14.2238   -3.0411 C   0  0  0  0  0  0  0  0  0  0  0  0
   -0.9454   15.1163    1.8333 N   0  0  0  0  0  0  0  0  0  0  0  0
    0.2576   14.7431   -0.2408 N   0  0  0  0  0  0  0  0  0  0  0  0
   -3.3895   15.0935    1.6470 N   0  0  0  0  0  0  0  0  0  0  0  0
   -0.9303   14.3730   -2.2735 N   0  0  0  0  0  0  0  0  0  0  0  0
    1.1160   15.0702    1.6189 H   0  0  0  0  0  0  0  0  0  0  0  0
   -3.7101   15.2952   -1.5780 H   0  0  0  0  0  0  0  0  0  0  0  0
   -3.7543   13.6092   -0.9589 H   0  0  0  0  0  0  0  0  0  0  0  0
   -4.6645   16.1499    0.3717 H   0  0  0  0  0  0  0  0  0  0  0  0
   -5.1821   14.4880    0.7039 H   0  0  0  0  0  0  0  0  0  0  0  0
    1.1406   14.3416   -2.3844 H   0  0  0  0  0  0  0  0  0  0  0  0
    0.2845   13.2246   -3.5005 H   0  0  0  0  0  0  0  0  0  0  0  0
    0.2936   14.9905   -3.8294 H   0  0  0  0  0  0  0  0  0  0  0  0
   -3.6105   15.3287    2.6019 H   0  0  0  0  0  0  0  0  0  0  0  0
   -1.8266   14.2956   -2.7139 H   0  0  0  0  0  0  0  0  0  0  0  0
  1  8  1  0  0  0  0
  1  9  2  0  0  0  0
  2  3  1  0  0  0  0
  2  4  2  0  0  0  0
  2  5  1  0  0  0  0
  3  8  2  0  0  0  0
  3 10  1  0  0  0  0
  4  9  1  0  0  0  0
  4 11  1  0  0  0  0
  5  6  1  0  0  0  0
  6 10  1  0  0  0  0
  7 11  1  0  0  0  0
  1 12  1  0  0  0  0
  5 13  1  0  0  0  0
  5 14  1  0  0  0  0
  6 15  1  0  0  0  0
  6 16  1  0  0  0  0
  7 17  1  0  0  0  0
  7 18  1  0  0  0  0
  7 19  1  0  0  0  0
 10 20  1  0  0  0  0
 11 21  1  0  0  0  0
M  END
> <HYBRID receptor title>
5S18(A) > WOY(A-201)

> <HYBRID receptor filename>
5s18.oedu

> <HYBRID Chemgauss4 score>
-6.605309

> <HYBRID receptor title>
5S18(A) > WOY(A-201)

> <HYBRID receptor filename>
5s18.oedu

> <Dock Type>
Hybrid

$$$$
MOL0030_1
  -OEChem-06022418243D

 20 21  0     0  0  0  0  0  0999 V2000
   -0.2230   14.8613    1.0026 C   0  0  0  0  0  0  0  0  0  0  0  0
   -2.5818   14.9044   -0.2121 C   0  0  0  0  0  0  0  0  0  0  0  0
   -2.4516   15.2258    1.1293 C   0  0  0  0  0  0  0  0  0  0  0  0
   -1.4508   14.5529   -0.9005 C   0  0  0  0  0  0  0  0  0  0  0  0
   -4.0045   14.9710   -0.6369 C   0  0  0  0  0  0  0  0  0  0  0  0
   -4.6583   15.6392    0.5919 C   0  0  0  0  0  0  0  0  0  0  0  0
   -0.2937   13.8578   -2.8585 C   0  0  0  0  0  0  0  0  0  0  0  0
   -1.2740   15.2134    1.7748 N   0  0  0  0  0  0  0  0  0  0  0  0
   -0.2389   14.5266   -0.3097 N   0  0  0  0  0  0  0  0  0  0  0  0
   -3.7008   15.5461    1.6812 N   0  0  0  0  0  0  0  0  0  0  0  0
   -1.5181   14.2096   -2.2209 O   0  0  0  0  0  0  0  0  0  0  0  0
    0.7452   14.8431    1.4889 H   0  0  0  0  0  0  0  0  0  0  0  0
   -4.1384   15.5780   -1.5368 H   0  0  0  0  0  0  0  0  0  0  0  0
   -4.4032   13.9638   -0.7947 H   0  0  0  0  0  0  0  0  0  0  0  0
   -4.8656   16.6951    0.3804 H   0  0  0  0  0  0  0  0  0  0  0  0
   -5.6059   15.1561    0.8512 H   0  0  0  0  0  0  0  0  0  0  0  0
   -0.4857   13.6065   -3.9044 H   0  0  0  0  0  0  0  0  0  0  0  0
    0.1540   13.0040   -2.3437 H   0  0  0  0  0  0  0  0  0  0  0  0
    0.3896   14.7090   -2.8102 H   0  0  0  0  0  0  0  0  0  0  0  0
   -3.8395   15.8739    2.6244 H   0  0  0  0  0  0  0  0  0  0  0  0
  1  8  1  0  0  0  0
  1  9  2  0  0  0  0
  2  3  1  0  0  0  0
  2  4  2  0  0  0  0
  2  5  1  0  0  0  0
  3  8  2  0  0  0  0
  3 10  1  0  0  0  0
  4  9  1  0  0  0  0
  4 11  1  0  0  0  0
  5  6  1  0  0  0  0
  6 10  1  0  0  0  0
  7 11  1  0  0  0  0
  1 12  1  0  0  0  0
  5 13  1  0  0  0  0
  5 14  1  0  0  0  0
  6 15  1  0  0  0  0
  6 16  1  0  0  0  0
  7 17  1  0  0  0  0
  7 18  1  0  0  0  0
  7 19  1  0  0  0  0
 10 20  1  0  0  0  0
M  END
> <HYBRID receptor title>
5S18(A) > WOY(A-201)

> <HYBRID receptor filename>
5s18.oedu

> <HYBRID Chemgauss4 score>
-6.598983

> <HYBRID receptor title>
5S18(A) > WOY(A-201)

> <HYBRID receptor filename>
5s18.oedu

> <Dock Type>
Hybrid

$$$$
MOL0136_3
  -OEChem-06022418243D

 28 30  0     1  0  0  0  0  0999 V2000
   -1.2306   14.5283   -0.8952 C   0  0  0  0  0  0  0  0  0  0  0  0
    0.0766   14.9235    0.9376 C   0  0  0  0  0  0  0  0  0  0  0  0
   -2.3497   14.7309   -0.1289 C   0  0  0  0  0  0  0  0  0  0  0  0
   -2.1660   15.0230    1.2152 C   0  0  0  0  0  0  0  0  0  0  0  0
   -6.3168   14.3343   -2.1934 C   0  0  0  0  0  0  0  0  0  0  0  0
   -5.2293   13.6112   -2.9751 C   0  0  0  0  0  0  0  0  0  0  0  0
   -5.6553   15.5969   -1.6603 C   0  0  0  0  0  0  0  0  0  0  0  0
   -3.9939   14.4913   -2.8522 C   0  0  0  0  0  0  0  0  0  0  0  0
   -4.4274   15.2472    0.8295 C   0  0  0  0  0  0  0  0  0  0  0  0
   -3.8041   14.6297   -0.4493 C   0  0  1  0  0  0  0  0  0  0  0  0
    0.0128   14.6268   -0.3818 N   0  0  0  0  0  0  0  0  0  0  0  0
   -0.9545   15.1279    1.7856 N   0  0  0  0  0  0  0  0  0  0  0  0
   -3.4040   15.1771    1.8602 N   0  0  0  0  0  0  0  0  0  0  0  0
   -4.2084   15.3431   -1.6748 N   0  0  0  0  0  0  0  0  0  0  0  0
   -1.2878   14.2743   -1.9467 H   0  0  0  0  0  0  0  0  0  0  0  0
    1.0704   15.0045    1.3620 H   0  0  0  0  0  0  0  0  0  0  0  0
   -7.1820   14.5711   -2.8227 H   0  0  0  0  0  0  0  0  0  0  0  0
   -6.6670   13.7007   -1.3688 H   0  0  0  0  0  0  0  0  0  0  0  0
   -5.0480   12.6230   -2.5342 H   0  0  0  0  0  0  0  0  0  0  0  0
   -5.5118   13.4622   -4.0234 H   0  0  0  0  0  0  0  0  0  0  0  0
   -5.9197   16.4573   -2.3106 H   0  0  0  0  0  0  0  0  0  0  0  0
   -6.0164   15.8432   -0.6422 H   0  0  0  0  0  0  0  0  0  0  0  0
   -3.0727   13.8830   -2.7540 H   0  0  0  0  0  0  0  0  0  0  0  0
   -3.8780   15.0997   -3.7742 H   0  0  0  0  0  0  0  0  0  0  0  0
   -4.6995   16.2998    0.6785 H   0  0  0  0  0  0  0  0  0  0  0  0
   -5.3342   14.7111    1.1292 H   0  0  0  0  0  0  0  0  0  0  0  0
   -4.0754   13.5699   -0.5239 H   0  0  0  0  0  0  0  0  0  0  0  0
   -3.5069   15.4719    2.8190 H   0  0  0  0  0  0  0  0  0  0  0  0
  1  3  1  0  0  0  0
  1 11  2  0  0  0  0
  2 11  1  0  0  0  0
  2 12  2  0  0  0  0
  3  4  2  0  0  0  0
  3 10  1  0  0  0  0
  4 12  1  0  0  0  0
  4 13  1  0  0  0  0
  5  6  1  0  0  0  0
  5  7  1  0  0  0  0
  6  8  1  0  0  0  0
  7 14  1  0  0  0  0
  8 14  1  0  0  0  0
  9 10  1  0  0  0  0
  9 13  1  0  0  0  0
 10 14  1  0  0  0  0
  1 15  1  0  0  0  0
  2 16  1  0  0  0  0
  5 17  1  0  0  0  0
  5 18  1  0  0  0  0
  6 19  1  0  0  0  0
  6 20  1  0  0  0  0
  7 21  1  0  0  0  0
  7 22  1  0  0  0  0
  8 23  1  0  0  0  0
  8 24  1  0  0  0  0
  9 25  1  0  0  0  0
  9 26  1  0  0  0  0
 10 27  1  0  0  0  0
 13 28  1  0  0  0  0
M  END
> <HYBRID receptor title>
5S18(A) > WOY(A-201)

> <HYBRID receptor filename>
5s18.oedu

> <HYBRID Chemgauss4 score>
-6.576451

> <HYBRID receptor title>
5S18(A) > WOY(A-201)

> <HYBRID receptor filename>
5s18.oedu

> <Dock Type>
Hybrid

$$$$
MOL0228_12
  -OEChem-06022418243D

 29 31  0     1  0  0  0  0  0999 V2000
   -8.0085   14.8343   -0.3048 C   0  0  0  0  0  0  0  0  0  0  0  0
   -0.9724   14.8332   -0.8479 C   0  0  0  0  0  0  0  0  0  0  0  0
   -6.9929   15.5362   -0.9100 C   0  0  0  0  0  0  0  0  0  0  0  0
    0.1458   14.9916    1.1387 C   0  0  0  0  0  0  0  0  0  0  0  0
   -6.9728   13.4146   -1.5057 C   0  0  0  0  0  0  0  0  0  0  0  0
   -2.1529   14.7022   -0.1625 C   0  0  0  0  0  0  0  0  0  0  0  0
   -2.0984   14.7179    1.2231 C   0  0  0  0  0  0  0  0  0  0  0  0
   -4.3435   14.6825    0.6879 C   0  0  0  0  0  0  0  0  0  0  0  0
   -3.5539   14.4848   -0.6328 C   0  0  1  0  0  0  0  0  0  0  0  0
   -4.0027   15.4374   -1.7296 C   0  0  0  0  0  0  0  0  0  0  0  0
   -5.1744   14.8610   -2.5209 C   0  0  0  0  0  0  0  0  0  0  0  0
    0.2079   14.9870   -0.2135 N   0  0  0  0  0  0  0  0  0  0  0  0
   -7.9904   13.5141   -0.6795 N   0  0  0  0  0  0  0  0  0  0  0  0
   -0.9540   14.8614    1.9118 N   0  0  0  0  0  0  0  0  0  0  0  0
   -6.3378   14.6133   -1.6758 N   0  0  0  0  0  0  0  0  0  0  0  0
   -3.3807   14.5629    1.7702 N   0  0  0  0  0  0  0  0  0  0  0  0
   -8.7519   15.2125    0.3817 H   0  0  0  0  0  0  0  0  0  0  0  0
   -0.9266   14.8144   -1.9300 H   0  0  0  0  0  0  0  0  0  0  0  0
   -6.6913   16.5733   -0.8633 H   0  0  0  0  0  0  0  0  0  0  0  0
    1.0877   15.1129    1.6605 H   0  0  0  0  0  0  0  0  0  0  0  0
   -6.6512   12.5110   -2.0054 H   0  0  0  0  0  0  0  0  0  0  0  0
   -4.8087   15.6748    0.7314 H   0  0  0  0  0  0  0  0  0  0  0  0
   -5.1385   13.9358    0.7863 H   0  0  0  0  0  0  0  0  0  0  0  0
   -3.6555   13.4455   -0.9688 H   0  0  0  0  0  0  0  0  0  0  0  0
   -4.2864   16.3964   -1.2804 H   0  0  0  0  0  0  0  0  0  0  0  0
   -3.1585   15.6399   -2.3994 H   0  0  0  0  0  0  0  0  0  0  0  0
   -4.8995   13.9116   -2.9956 H   0  0  0  0  0  0  0  0  0  0  0  0
   -5.4834   15.5444   -3.3208 H   0  0  0  0  0  0  0  0  0  0  0  0
   -3.5866   14.6171    2.7556 H   0  0  0  0  0  0  0  0  0  0  0  0
  1  3  2  0  0  0  0
  1 13  1  0  0  0  0
  2  6  1  0  0  0  0
  2 12  2  0  0  0  0
  3 15  1  0  0  0  0
  4 12  1  0  0  0  0
  4 14  2  0  0  0  0
  5 13  2  0  0  0  0
  5 15  1  0  0  0  0
  6  7  2  0  0  0  0
  6  9  1  0  0  0  0
  7 14  1  0  0  0  0
  7 16  1  0  0  0  0
  8  9  1  0  0  0  0
  8 16  1  0  0  0  0
  9 10  1  0  0  0  0
 10 11  1  0  0  0  0
 11 15  1  0  0  0  0
  1 17  1  0  0  0  0
  2 18  1  0  0  0  0
  3 19  1  0  0  0  0
  4 20  1  0  0  0  0
  5 21  1  0  0  0  0
  8 22  1  0  0  0  0
  8 23  1  0  0  0  0
  9 24  1  0  0  0  0
 10 25  1  0  0  0  0
 10 26  1  0  0  0  0
 11 27  1  0  0  0  0
 11 28  1  0  0  0  0
 16 29  1  0  0  0  0
M  END
> <HYBRID receptor title>
5S18(A) > WOY(A-201)

> <HYBRID receptor filename>
5s18.oedu

> <HYBRID Chemgauss4 score>
-6.572038

> <HYBRID receptor title>
5S18(A) > WOY(A-201)

> <HYBRID receptor filename>
5s18.oedu

> <Dock Type>
Hybrid

$$$$
MOL0022_1
  -OEChem-06022418243D

 23 24  0     1  0  0  0  0  0999 V2000
   -2.8165   15.0582    0.9486 C   0  0  0  0  0  0  0  0  0  0  0  0
   -0.5401   14.8758    1.0016 C   0  0  0  0  0  0  0  0  0  0  0  0
   -2.7831   14.9143   -0.4135 C   0  0  0  0  0  0  0  0  0  0  0  0
   -1.5470   14.7617   -1.0262 C   0  0  0  0  0  0  0  0  0  0  0  0
   -3.8754   14.9248   -1.4216 C   0  0  0  0  0  0  0  0  0  0  0  0
   -3.1244   14.4095   -2.6663 C   0  0  0  0  0  0  0  0  0  0  0  0
   -0.6582   14.1291   -3.2597 C   0  0  0  0  0  0  0  0  0  0  0  0
    0.2581   15.2594   -3.6914 C   0  0  0  0  0  0  0  0  0  0  0  0
   -1.6926   15.0389    1.6929 N   0  0  0  0  0  0  0  0  0  0  0  0
   -0.3942   14.7353   -0.3341 N   0  0  0  0  0  0  0  0  0  0  0  0
   -1.7051   14.6500   -2.4202 N   0  0  2  0  0  0  0  0  0  0  0  0
   -0.4853   16.2080   -4.4461 O   0  0  0  0  0  0  0  0  0  0  0  0
   -3.7430   15.1947    1.4928 H   0  0  0  0  0  0  0  0  0  0  0  0
    0.3710   14.8583    1.5880 H   0  0  0  0  0  0  0  0  0  0  0  0
   -4.6996   14.2598   -1.1491 H   0  0  0  0  0  0  0  0  0  0  0  0
   -4.2424   15.9447   -1.5748 H   0  0  0  0  0  0  0  0  0  0  0  0
   -3.3007   13.3326   -2.7873 H   0  0  0  0  0  0  0  0  0  0  0  0
   -3.4689   14.9116   -3.5766 H   0  0  0  0  0  0  0  0  0  0  0  0
   -1.1217   13.6421   -4.1236 H   0  0  0  0  0  0  0  0  0  0  0  0
   -0.0994   13.3840   -2.6855 H   0  0  0  0  0  0  0  0  0  0  0  0
    1.0571   14.8709   -4.3304 H   0  0  0  0  0  0  0  0  0  0  0  0
    0.7047   15.7669   -2.8301 H   0  0  0  0  0  0  0  0  0  0  0  0
    0.1347   16.9100   -4.7010 H   0  0  0  0  0  0  0  0  0  0  0  0
  1  3  1  0  0  0  0
  1  9  2  0  0  0  0
  2  9  1  0  0  0  0
  2 10  2  0  0  0  0
  3  4  2  0  0  0  0
  3  5  1  0  0  0  0
  4 10  1  0  0  0  0
  4 11  1  0  0  0  0
  5  6  1  0  0  0  0
  6 11  1  0  0  0  0
  7  8  1  0  0  0  0
  7 11  1  0  0  0  0
  8 12  1  0  0  0  0
  1 13  1  0  0  0  0
  2 14  1  0  0  0  0
  5 15  1  0  0  0  0
  5 16  1  0  0  0  0
  6 17  1  0  0  0  0
  6 18  1  0  0  0  0
  7 19  1  0  0  0  0
  7 20  1  0  0  0  0
  8 21  1  0  0  0  0
  8 22  1  0  0  0  0
 12 23  1  0  0  0  0
M  END
> <HYBRID receptor title>
5S18(A) > WOY(A-201)

> <HYBRID receptor filename>
5s18.oedu

> <HYBRID Chemgauss4 score>
-6.564498

> <HYBRID receptor title>
5S18(A) > WOY(A-201)

> <HYBRID receptor filename>
5s18.oedu

> <Dock Type>
Hybrid

$$$$
MOL0210_4
  -OEChem-06022418243D

 31 33  0     1  0  0  0  0  0999 V2000
   -1.1990   14.5163   -0.9820 C   0  0  0  0  0  0  0  0  0  0  0  0
   -0.0509   14.8670    0.9632 C   0  0  0  0  0  0  0  0  0  0  0  0
   -2.3773   14.7313   -0.3141 C   0  0  0  0  0  0  0  0  0  0  0  0
   -2.3072   15.0052    1.0445 C   0  0  0  0  0  0  0  0  0  0  0  0
   -4.3448   13.1739   -4.9583 C   0  0  0  0  0  0  0  0  0  0  0  0
   -3.6467   14.4047   -5.5433 C   0  0  0  0  0  0  0  0  0  0  0  0
   -4.7045   13.5370   -3.5200 C   0  0  0  0  0  0  0  0  0  0  0  0
   -3.6206   15.4452   -4.4267 C   0  0  0  0  0  0  0  0  0  0  0  0
   -4.5218   15.2750    0.4654 C   0  0  0  0  0  0  0  0  0  0  0  0
   -3.7996   14.6606   -0.7617 C   0  0  1  0  0  0  0  0  0  0  0  0
   -3.6851   14.6091   -3.1542 C   0  0  0  0  0  0  0  0  0  0  0  0
   -0.0039   14.5860   -0.3605 N   0  0  0  0  0  0  0  0  0  0  0  0
   -1.1487   15.0812    1.7201 N   0  0  0  0  0  0  0  0  0  0  0  0
   -3.5940   15.1751    1.5806 N   0  0  0  0  0  0  0  0  0  0  0  0
   -4.0785   15.3849   -1.9918 N   0  0  0  0  0  0  0  0  0  0  0  0
   -1.1682   14.2749   -2.0376 H   0  0  0  0  0  0  0  0  0  0  0  0
    0.9030   14.9246    1.4739 H   0  0  0  0  0  0  0  0  0  0  0  0
   -5.2341   12.8972   -5.5338 H   0  0  0  0  0  0  0  0  0  0  0  0
   -3.6613   12.3170   -4.9757 H   0  0  0  0  0  0  0  0  0  0  0  0
   -2.6261   14.1435   -5.8461 H   0  0  0  0  0  0  0  0  0  0  0  0
   -4.1653   14.7840   -6.4293 H   0  0  0  0  0  0  0  0  0  0  0  0
   -5.7266   13.9358   -3.4886 H   0  0  0  0  0  0  0  0  0  0  0  0
   -4.6630   12.6700   -2.8533 H   0  0  0  0  0  0  0  0  0  0  0  0
   -2.7274   16.0763   -4.4714 H   0  0  0  0  0  0  0  0  0  0  0  0
   -4.4979   16.0988   -4.5160 H   0  0  0  0  0  0  0  0  0  0  0  0
   -4.7617   16.3340    0.3041 H   0  0  0  0  0  0  0  0  0  0  0  0
   -5.4607   14.7521    0.6768 H   0  0  0  0  0  0  0  0  0  0  0  0
   -4.0820   13.6069   -0.8732 H   0  0  0  0  0  0  0  0  0  0  0  0
   -2.7127   14.1455   -2.9655 H   0  0  0  0  0  0  0  0  0  0  0  0
   -3.7753   15.4609    2.5305 H   0  0  0  0  0  0  0  0  0  0  0  0
   -3.5644   16.2663   -1.9886 H   0  0  0  0  0  0  0  0  0  0  0  0
  1  3  1  0  0  0  0
  1 12  2  0  0  0  0
  2 12  1  0  0  0  0
  2 13  2  0  0  0  0
  3  4  2  0  0  0  0
  3 10  1  0  0  0  0
  4 13  1  0  0  0  0
  4 14  1  0  0  0  0
  5  6  1  0  0  0  0
  5  7  1  0  0  0  0
  6  8  1  0  0  0  0
  7 11  1  0  0  0  0
  8 11  1  0  0  0  0
  9 10  1  0  0  0  0
  9 14  1  0  0  0  0
 10 15  1  0  0  0  0
 11 15  1  0  0  0  0
  1 16  1  0  0  0  0
  2 17  1  0  0  0  0
  5 18  1  0  0  0  0
  5 19  1  0  0  0  0
  6 20  1  0  0  0  0
  6 21  1  0  0  0  0
  7 22  1  0  0  0  0
  7 23  1  0  0  0  0
  8 24  1  0  0  0  0
  8 25  1  0  0  0  0
  9 26  1  0  0  0  0
  9 27  1  0  0  0  0
 10 28  1  0  0  0  0
 11 29  1  0  0  0  0
 14 30  1  0  0  0  0
 15 31  1  0  0  0  0
M  END
> <HYBRID receptor title>
5S18(A) > WOY(A-201)

> <HYBRID receptor filename>
5s18.oedu

> <HYBRID Chemgauss4 score>
-6.552656

> <HYBRID receptor title>
5S18(A) > WOY(A-201)

> <HYBRID receptor filename>
5s18.oedu

> <Dock Type>
Hybrid

$$$$
MOL0192_1
  -OEChem-06022418243D

 21 22  0     0  0  0  0  0  0999 V2000
   -2.3833   15.0536    1.3787 C   0  0  0  0  0  0  0  0  0  0  0  0
   -0.1309   14.6058    1.4405 C   0  0  0  0  0  0  0  0  0  0  0  0
   -2.4202   14.9863   -0.0098 C   0  0  0  0  0  0  0  0  0  0  0  0
   -1.2256   14.6862   -0.6777 C   0  0  0  0  0  0  0  0  0  0  0  0
   -0.0554   14.5051    0.0606 C   0  0  0  0  0  0  0  0  0  0  0  0
   -1.1977   14.6225   -2.1828 C   0  0  0  0  0  0  0  0  0  0  0  0
   -3.7093   15.1597   -0.7652 C   0  0  0  0  0  0  0  0  0  0  0  0
   -2.5958   14.4734   -2.7885 C   0  0  0  0  0  0  0  0  0  0  0  0
   -1.2673   14.8733    2.1202 N   0  0  0  0  0  0  0  0  0  0  0  0
   -3.5149   15.4433   -2.1925 N   0  0  0  0  0  0  0  0  0  0  0  0
    1.1361   14.2414   -0.5353 O   0  0  0  0  0  0  0  0  0  0  0  0
   -3.2809   15.2602    1.9536 H   0  0  0  0  0  0  0  0  0  0  0  0
    0.7500   14.4715    2.0606 H   0  0  0  0  0  0  0  0  0  0  0  0
   -0.7330   15.5440   -2.5562 H   0  0  0  0  0  0  0  0  0  0  0  0
   -0.5838   13.7769   -2.5147 H   0  0  0  0  0  0  0  0  0  0  0  0
   -4.3124   14.2508   -0.6479 H   0  0  0  0  0  0  0  0  0  0  0  0
   -4.2744   15.9925   -0.3318 H   0  0  0  0  0  0  0  0  0  0  0  0
   -2.5386   14.6420   -3.8695 H   0  0  0  0  0  0  0  0  0  0  0  0
   -2.9748   13.4537   -2.6433 H   0  0  0  0  0  0  0  0  0  0  0  0
   -4.4163   15.3958   -2.6665 H   0  0  0  0  0  0  0  0  0  0  0  0
    1.8363   14.1500    0.1320 H   0  0  0  0  0  0  0  0  0  0  0  0
  1  3  2  0  0  0  0
  1  9  1  0  0  0  0
  2  5  1  0  0  0  0
  2  9  2  0  0  0  0
  3  4  1  0  0  0  0
  3  7  1  0  0  0  0
  4  5  2  0  0  0  0
  4  6  1  0  0  0  0
  5 11  1  0  0  0  0
  6  8  1  0  0  0  0
  7 10  1  0  0  0  0
  8 10  1  0  0  0  0
  1 12  1  0  0  0  0
  2 13  1  0  0  0  0
  6 14  1  0  0  0  0
  6 15  1  0  0  0  0
  7 16  1  0  0  0  0
  7 17  1  0  0  0  0
  8 18  1  0  0  0  0
  8 19  1  0  0  0  0
 10 20  1  0  0  0  0
 11 21  1  0  0  0  0
M  END
> <HYBRID receptor title>
5S18(A) > WOY(A-201)

> <HYBRID receptor filename>
5s18.oedu

> <HYBRID Chemgauss4 score>
-6.543748

> <HYBRID receptor title>
5S18(A) > WOY(A-201)

> <HYBRID receptor filename>
5s18.oedu

> <Dock Type>
Hybrid

$$$$
MOL0132_2
  -OEChem-06022418243D

 26 28  0     1  0  0  0  0  0999 V2000
   -2.1581   14.9188    0.8479 C   0  0  0  0  0  0  0  0  0  0  0  0
    0.1109   14.8131    1.0923 C   0  0  0  0  0  0  0  0  0  0  0  0
   -2.0101   14.7227   -0.5004 C   0  0  0  0  0  0  0  0  0  0  0  0
   -0.7266   14.5782   -0.9970 C   0  0  0  0  0  0  0  0  0  0  0  0
   -3.0216   14.6509   -1.5895 C   0  0  0  0  0  0  0  0  0  0  0  0
   -1.7196   11.0345   -3.8632 C   0  0  0  0  0  0  0  0  0  0  0  0
   -2.0506   11.7533   -2.5389 C   0  0  0  0  0  0  0  0  0  0  0  0
   -1.5133   12.4302   -4.4871 C   0  0  0  0  0  0  0  0  0  0  0  0
   -2.4674   12.9782   -3.3942 C   0  0  0  0  0  0  0  0  0  0  0  0
   -2.1380   14.3442   -2.8294 C   0  0  2  0  0  0  0  0  0  0  0  0
   -1.0986   14.9671    1.6807 N   0  0  0  0  0  0  0  0  0  0  0  0
    0.3681   14.6189   -0.2195 N   0  0  0  0  0  0  0  0  0  0  0  0
   -0.7509   14.3891   -2.3830 N   0  0  0  0  0  0  0  0  0  0  0  0
   -3.1297   15.0455    1.3096 H   0  0  0  0  0  0  0  0  0  0  0  0
    0.9713   14.8504    1.7499 H   0  0  0  0  0  0  0  0  0  0  0  0
   -3.7633   13.8716   -1.3899 H   0  0  0  0  0  0  0  0  0  0  0  0
   -3.5162   15.6215   -1.7001 H   0  0  0  0  0  0  0  0  0  0  0  0
   -0.8405   10.3857   -3.8462 H   0  0  0  0  0  0  0  0  0  0  0  0
   -2.5652   10.4816   -4.2881 H   0  0  0  0  0  0  0  0  0  0  0  0
   -2.8449   11.2993   -1.9409 H   0  0  0  0  0  0  0  0  0  0  0  0
   -1.1749   11.9199   -1.9006 H   0  0  0  0  0  0  0  0  0  0  0  0
   -0.4813   12.7932   -4.4151 H   0  0  0  0  0  0  0  0  0  0  0  0
   -1.8586   12.5432   -5.5180 H   0  0  0  0  0  0  0  0  0  0  0  0
   -3.5219   12.9210   -3.7046 H   0  0  0  0  0  0  0  0  0  0  0  0
   -2.3033   15.1048   -3.6014 H   0  0  0  0  0  0  0  0  0  0  0  0
    0.0636   14.2412   -2.9582 H   0  0  0  0  0  0  0  0  0  0  0  0
  1  3  1  0  0  0  0
  1 11  2  0  0  0  0
  2 11  1  0  0  0  0
  2 12  2  0  0  0  0
  3  4  2  0  0  0  0
  3  5  1  0  0  0  0
  4 12  1  0  0  0  0
  4 13  1  0  0  0  0
  5 10  1  0  0  0  0
  6  7  1  0  0  0  0
  6  8  1  0  0  0  0
  7  9  1  0  0  0  0
  8  9  1  0  0  0  0
  9 10  1  0  0  0  0
 10 13  1  0  0  0  0
  1 14  1  0  0  0  0
  2 15  1  0  0  0  0
  5 16  1  0  0  0  0
  5 17  1  0  0  0  0
  6 18  1  0  0  0  0
  6 19  1  0  0  0  0
  7 20  1  0  0  0  0
  7 21  1  0  0  0  0
  8 22  1  0  0  0  0
  8 23  1  0  0  0  0
  9 24  1  0  0  0  0
 10 25  1  0  0  0  0
 13 26  1  0  0  0  0
M  END
> <HYBRID receptor title>
5S18(A) > WOY(A-201)

> <HYBRID receptor filename>
5s18.oedu

> <HYBRID Chemgauss4 score>
-6.530222

> <HYBRID receptor title>
5S18(A) > WOY(A-201)

> <HYBRID receptor filename>
5s18.oedu

> <Dock Type>
Hybrid

$$$$
MOL0016_1
  -OEChem-06022418243D

 17 18  0     0  0  0  0  0  0999 V2000
   -2.1141   14.6009   -0.8276 C   0  0  0  0  0  0  0  0  0  0  0  0
   -3.0676   15.1995   -0.0473 C   0  0  0  0  0  0  0  0  0  0  0  0
   -2.7573   15.4490    1.2799 C   0  0  0  0  0  0  0  0  0  0  0  0
   -0.7012   14.5596    0.9687 C   0  0  0  0  0  0  0  0  0  0  0  0
   -4.4606   15.6177   -0.3531 C   0  0  0  0  0  0  0  0  0  0  0  0
   -4.8331   16.3957    0.9276 C   0  0  0  0  0  0  0  0  0  0  0  0
   -0.9018   14.2689   -0.3389 N   0  0  0  0  0  0  0  0  0  0  0  0
   -1.5706   15.1375    1.8260 N   0  0  0  0  0  0  0  0  0  0  0  0
   -3.8436   16.0490    1.9338 N   0  0  0  0  0  0  0  0  0  0  0  0
    0.5308   14.2258    1.4827 O   0  0  0  0  0  0  0  0  0  0  0  0
   -2.2865   14.3630   -1.8701 H   0  0  0  0  0  0  0  0  0  0  0  0
   -4.5129   16.2585   -1.2376 H   0  0  0  0  0  0  0  0  0  0  0  0
   -5.1026   14.7405   -0.4808 H   0  0  0  0  0  0  0  0  0  0  0  0
   -4.7937   17.4750    0.7369 H   0  0  0  0  0  0  0  0  0  0  0  0
   -5.8460   16.1504    1.2626 H   0  0  0  0  0  0  0  0  0  0  0  0
   -3.8234   16.3784    2.8865 H   0  0  0  0  0  0  0  0  0  0  0  0
    1.0690   13.8215    0.7906 H   0  0  0  0  0  0  0  0  0  0  0  0
  1  2  1  0  0  0  0
  1  7  2  0  0  0  0
  2  3  2  0  0  0  0
  2  5  1  0  0  0  0
  3  8  1  0  0  0  0
  3  9  1  0  0  0  0
  4  7  1  0  0  0  0
  4  8  2  0  0  0  0
  4 10  1  0  0  0  0
  5  6  1  0  0  0  0
  6  9  1  0  0  0  0
  1 11  1  0  0  0  0
  5 12  1  0  0  0  0
  5 13  1  0  0  0  0
  6 14  1  0  0  0  0
  6 15  1  0  0  0  0
  9 16  1  0  0  0  0
 10 17  1  0  0  0  0
M  END
> <HYBRID receptor title>
5S18(A) > WOY(A-201)

> <HYBRID receptor filename>
5s18.oedu

> <HYBRID Chemgauss4 score>
-6.527689

> <HYBRID receptor title>
5S18(A) > WOY(A-201)

> <HYBRID receptor filename>
5s18.oedu

> <Dock Type>
Hybrid

$$$$
MOL0197_3
  -OEChem-06022418243D

 27 29  0     0  0  0  0  0  0999 V2000
    0.6076   15.1148   -4.0857 C   0  0  0  0  0  0  0  0  0  0  0  0
   -0.6303   15.0355   -3.4478 C   0  0  0  0  0  0  0  0  0  0  0  0
    1.7748   14.8165   -3.3826 C   0  0  0  0  0  0  0  0  0  0  0  0
    0.4662   14.3596   -1.4038 C   0  0  0  0  0  0  0  0  0  0  0  0
   -4.2249   14.1782   -1.5988 C   0  0  0  0  0  0  0  0  0  0  0  0
   -0.7010   14.6579   -2.1069 C   0  0  0  0  0  0  0  0  0  0  0  0
   -4.3453   14.4229   -0.2564 C   0  0  0  0  0  0  0  0  0  0  0  0
    1.7041   14.4389   -2.0417 C   0  0  0  0  0  0  0  0  0  0  0  0
   -3.1973   14.7419    0.4508 C   0  0  0  0  0  0  0  0  0  0  0  0
   -1.9790   14.5753   -1.4476 C   0  0  0  0  0  0  0  0  0  0  0  0
   -5.5251   14.3684    0.6458 C   0  0  0  0  0  0  0  0  0  0  0  0
   -4.9426   14.9654    1.9453 C   0  0  0  0  0  0  0  0  0  0  0  0
   -3.0359   14.2527   -2.2307 N   0  0  0  0  0  0  0  0  0  0  0  0
   -1.9848   14.8267   -0.1203 N   0  0  0  0  0  0  0  0  0  0  0  0
   -3.4961   14.9464    1.8060 N   0  0  0  0  0  0  0  0  0  0  0  0
    2.8433   14.1478   -1.3560 O   0  0  0  0  0  0  0  0  0  0  0  0
    0.6626   15.4091   -5.1297 H   0  0  0  0  0  0  0  0  0  0  0  0
   -1.5313   15.2711   -4.0094 H   0  0  0  0  0  0  0  0  0  0  0  0
    2.7365   14.8798   -3.8846 H   0  0  0  0  0  0  0  0  0  0  0  0
    0.4208   14.0651   -0.3573 H   0  0  0  0  0  0  0  0  0  0  0  0
   -5.0740   13.9111   -2.2159 H   0  0  0  0  0  0  0  0  0  0  0  0
   -6.3582   14.9692    0.2703 H   0  0  0  0  0  0  0  0  0  0  0  0
   -5.8419   13.3316    0.7970 H   0  0  0  0  0  0  0  0  0  0  0  0
   -5.2815   16.0010    2.0685 H   0  0  0  0  0  0  0  0  0  0  0  0
   -5.2664   14.3989    2.8243 H   0  0  0  0  0  0  0  0  0  0  0  0
   -2.8281   15.2515    2.4965 H   0  0  0  0  0  0  0  0  0  0  0  0
    2.6318   13.9038   -0.4408 H   0  0  0  0  0  0  0  0  0  0  0  0
  1  2  1  0  0  0  0
  1  3  2  0  0  0  0
  2  6  2  0  0  0  0
  3  8  1  0  0  0  0
  4  6  1  0  0  0  0
  4  8  2  0  0  0  0
  5  7  1  0  0  0  0
  5 13  2  0  0  0  0
  6 10  1  0  0  0  0
  7  9  2  0  0  0  0
  7 11  1  0  0  0  0
  8 16  1  0  0  0  0
  9 14  1  0  0  0  0
  9 15  1  0  0  0  0
 10 13  1  0  0  0  0
 10 14  2  0  0  0  0
 11 12  1  0  0  0  0
 12 15  1  0  0  0  0
  1 17  1  0  0  0  0
  2 18  1  0  0  0  0
  3 19  1  0  0  0  0
  4 20  1  0  0  0  0
  5 21  1  0  0  0  0
 11 22  1  0  0  0  0
 11 23  1  0  0  0  0
 12 24  1  0  0  0  0
 12 25  1  0  0  0  0
 15 26  1  0  0  0  0
 16 27  1  0  0  0  0
M  END
> <HYBRID receptor title>
5S18(A) > WOY(A-201)

> <HYBRID receptor filename>
5s18.oedu

> <HYBRID Chemgauss4 score>
-6.505218

> <HYBRID receptor title>
5S18(A) > WOY(A-201)

> <HYBRID receptor filename>
5s18.oedu

> <Dock Type>
Hybrid

$$$$
MOL0178_3
  -OEChem-06022418243D

 27 28  0     0  0  0  0  0  0999 V2000
    0.3073   14.7858    0.9205 C   0  0  0  0  0  0  0  0  0  0  0  0
   -1.9523   14.7142   -0.5313 C   0  0  0  0  0  0  0  0  0  0  0  0
   -1.9712   14.9087    0.8459 C   0  0  0  0  0  0  0  0  0  0  0  0
   -0.7023   14.5410   -1.0995 C   0  0  0  0  0  0  0  0  0  0  0  0
   -3.2180   14.6271   -1.3285 C   0  0  0  0  0  0  0  0  0  0  0  0
   -3.2805   15.1415    1.5553 C   0  0  0  0  0  0  0  0  0  0  0  0
   -4.4237   15.1805   -0.5637 C   0  0  0  0  0  0  0  0  0  0  0  0
    1.1895   15.4124   -3.6399 C   0  0  0  0  0  0  0  0  0  0  0  0
    0.6308   14.1143   -3.1651 C   0  0  0  0  0  0  0  0  0  0  0  0
   -0.8459   14.9592    1.5942 N   0  0  0  0  0  0  0  0  0  0  0  0
    0.4504   14.5750   -0.4008 N   0  0  0  0  0  0  0  0  0  0  0  0
   -4.4459   14.6596    0.8045 N   0  0  0  0  0  0  0  0  0  0  0  0
   -0.6136   14.3043   -2.4933 N   0  0  0  0  0  0  0  0  0  0  0  0
    1.2179   14.8201    1.5058 H   0  0  0  0  0  0  0  0  0  0  0  0
   -3.1227   15.1860   -2.2667 H   0  0  0  0  0  0  0  0  0  0  0  0
   -3.3983   13.5739   -1.5787 H   0  0  0  0  0  0  0  0  0  0  0  0
   -3.2608   14.6383    2.5285 H   0  0  0  0  0  0  0  0  0  0  0  0
   -3.3884   16.2152    1.7504 H   0  0  0  0  0  0  0  0  0  0  0  0
   -4.4012   16.2777   -0.5450 H   0  0  0  0  0  0  0  0  0  0  0  0
   -5.3475   14.8944   -1.0783 H   0  0  0  0  0  0  0  0  0  0  0  0
    1.3488   16.0800   -2.7803 H   0  0  0  0  0  0  0  0  0  0  0  0
    2.1485   15.2345   -4.1485 H   0  0  0  0  0  0  0  0  0  0  0  0
    0.4836   15.8805   -4.3417 H   0  0  0  0  0  0  0  0  0  0  0  0
    0.4746   13.4528   -4.0300 H   0  0  0  0  0  0  0  0  0  0  0  0
    1.3458   13.6480   -2.4713 H   0  0  0  0  0  0  0  0  0  0  0  0
   -4.4290   13.6399    0.7757 H   0  0  0  0  0  0  0  0  0  0  0  0
   -1.4756   14.2764   -2.9990 H   0  0  0  0  0  0  0  0  0  0  0  0
  1 10  1  0  0  0  0
  1 11  2  0  0  0  0
  2  3  1  0  0  0  0
  2  4  2  0  0  0  0
  2  5  1  0  0  0  0
  3  6  1  0  0  0  0
  3 10  2  0  0  0  0
  4 11  1  0  0  0  0
  4 13  1  0  0  0  0
  5  7  1  0  0  0  0
  6 12  1  0  0  0  0
  7 12  1  0  0  0  0
  8  9  1  0  0  0  0
  9 13  1  0  0  0  0
  1 14  1  0  0  0  0
  5 15  1  0  0  0  0
  5 16  1  0  0  0  0
  6 17  1  0  0  0  0
  6 18  1  0  0  0  0
  7 19  1  0  0  0  0
  7 20  1  0  0  0  0
  8 21  1  0  0  0  0
  8 22  1  0  0  0  0
  8 23  1  0  0  0  0
  9 24  1  0  0  0  0
  9 25  1  0  0  0  0
 12 26  1  0  0  0  0
 13 27  1  0  0  0  0
M  END
> <HYBRID receptor title>
5S18(A) > WOY(A-201)

> <HYBRID receptor filename>
5s18.oedu

> <HYBRID Chemgauss4 score>
-6.503788

> <HYBRID receptor title>
5S18(A) > WOY(A-201)

> <HYBRID receptor filename>
5s18.oedu

> <Dock Type>
Hybrid

$$$$
MOL0151_1
  -OEChem-06022418243D

 25 26  0     0  0  0  0  0  0999 V2000
   -2.6952   15.2092    1.3881 C   0  0  0  0  0  0  0  0  0  0  0  0
   -0.4864   14.7901    1.0963 C   0  0  0  0  0  0  0  0  0  0  0  0
   -2.9330   15.0870    0.0284 C   0  0  0  0  0  0  0  0  0  0  0  0
   -1.8213   14.8233   -0.7675 C   0  0  0  0  0  0  0  0  0  0  0  0
   -4.2968   15.2840   -0.5550 C   0  0  0  0  0  0  0  0  0  0  0  0
   -4.4023   14.6776   -1.9518 C   0  0  0  0  0  0  0  0  0  0  0  0
   -1.9718   14.6615   -2.2784 C   0  0  0  0  0  0  0  0  0  0  0  0
   -0.9086   15.5143   -3.0020 C   0  0  0  0  0  0  0  0  0  0  0  0
   -1.7575   13.1847   -2.6611 C   0  0  0  0  0  0  0  0  0  0  0  0
   -1.4822   15.0634    1.9561 N   0  0  0  0  0  0  0  0  0  0  0  0
   -0.5835   14.6579   -0.2401 N   0  0  0  0  0  0  0  0  0  0  0  0
   -3.2863   15.1153   -2.7910 N   0  0  0  0  0  0  0  0  0  0  0  0
   -3.4994   15.4355    2.0813 H   0  0  0  0  0  0  0  0  0  0  0  0
    0.5008   14.6621    1.5231 H   0  0  0  0  0  0  0  0  0  0  0  0
   -5.0308   14.8158    0.1114 H   0  0  0  0  0  0  0  0  0  0  0  0
   -4.5305   16.3528   -0.6136 H   0  0  0  0  0  0  0  0  0  0  0  0
   -4.3862   13.5830   -1.8763 H   0  0  0  0  0  0  0  0  0  0  0  0
   -5.3620   14.9348   -2.4183 H   0  0  0  0  0  0  0  0  0  0  0  0
   -1.0236   15.3929   -4.0735 H   0  0  0  0  0  0  0  0  0  0  0  0
    0.0789   15.1841   -2.6994 H   0  0  0  0  0  0  0  0  0  0  0  0
   -1.0453   16.5562   -2.7341 H   0  0  0  0  0  0  0  0  0  0  0  0
   -1.8658   13.0783   -3.7339 H   0  0  0  0  0  0  0  0  0  0  0  0
   -2.4975   12.5772   -2.1536 H   0  0  0  0  0  0  0  0  0  0  0  0
   -0.7618   12.8823   -2.3590 H   0  0  0  0  0  0  0  0  0  0  0  0
   -3.4265   14.7507   -3.7311 H   0  0  0  0  0  0  0  0  0  0  0  0
  1  3  1  0  0  0  0
  1 10  2  0  0  0  0
  2 10  1  0  0  0  0
  2 11  2  0  0  0  0
  3  4  2  0  0  0  0
  3  5  1  0  0  0  0
  4  7  1  0  0  0  0
  4 11  1  0  0  0  0
  5  6  1  0  0  0  0
  6 12  1  0  0  0  0
  7  8  1  0  0  0  0
  7  9  1  0  0  0  0
  7 12  1  0  0  0  0
  1 13  1  0  0  0  0
  2 14  1  0  0  0  0
  5 15  1  0  0  0  0
  5 16  1  0  0  0  0
  6 17  1  0  0  0  0
  6 18  1  0  0  0  0
  8 19  1  0  0  0  0
  8 20  1  0  0  0  0
  8 21  1  0  0  0  0
  9 22  1  0  0  0  0
  9 23  1  0  0  0  0
  9 24  1  0  0  0  0
 12 25  1  0  0  0  0
M  END
> <HYBRID receptor title>
5S18(A) > WOY(A-201)

> <HYBRID receptor filename>
5s18.oedu

> <HYBRID Chemgauss4 score>
-6.503551

> <HYBRID receptor title>
5S18(A) > WOY(A-201)

> <HYBRID receptor filename>
5s18.oedu

> <Dock Type>
Hybrid

$$$$
MOL0203_9
  -OEChem-06022418243D

 28 30  0     0  0  0  0  0  0999 V2000
   -3.2420   14.6148    1.8349 C   0  0  0  0  0  0  0  0  0  0  0  0
   -1.1327   14.9734    1.0292 C   0  0  0  0  0  0  0  0  0  0  0  0
   -3.7200   14.5715    0.5502 C   0  0  0  0  0  0  0  0  0  0  0  0
   -2.8048   14.7443   -0.4696 C   0  0  0  0  0  0  0  0  0  0  0  0
   -2.8346   14.8024   -2.9348 C   0  0  0  0  0  0  0  0  0  0  0  0
   -5.1059   14.3625    0.0528 C   0  0  0  0  0  0  0  0  0  0  0  0
    0.7044   14.9220   -4.4722 C   0  0  0  0  0  0  0  0  0  0  0  0
   -0.2812   13.8918   -4.9489 C   0  0  0  0  0  0  0  0  0  0  0  0
   -4.9039   14.4334   -1.4676 C   0  0  0  0  0  0  0  0  0  0  0  0
   -0.7679   15.1303   -4.2488 C   0  0  0  0  0  0  0  0  0  0  0  0
   -1.3464   15.0388   -2.8581 C   0  0  0  0  0  0  0  0  0  0  0  0
   -1.9358   14.8168    2.1079 N   0  0  0  0  0  0  0  0  0  0  0  0
   -1.4927   14.9495   -0.2714 N   0  0  0  0  0  0  0  0  0  0  0  0
   -3.4668   14.6700   -1.7106 N   0  0  0  0  0  0  0  0  0  0  0  0
   -3.3922   14.7408   -4.0315 O   0  0  0  0  0  0  0  0  0  0  0  0
   -3.8894   14.4879    2.6945 H   0  0  0  0  0  0  0  0  0  0  0  0
   -0.0813   15.1356    1.2344 H   0  0  0  0  0  0  0  0  0  0  0  0
   -5.4897   13.3837    0.3557 H   0  0  0  0  0  0  0  0  0  0  0  0
   -5.7732   15.1561    0.4010 H   0  0  0  0  0  0  0  0  0  0  0  0
    1.3272   14.6681   -3.6235 H   0  0  0  0  0  0  0  0  0  0  0  0
    1.1925   15.5361   -5.2191 H   0  0  0  0  0  0  0  0  0  0  0  0
   -0.4544   13.8153   -6.0154 H   0  0  0  0  0  0  0  0  0  0  0  0
   -0.3184   12.9478   -4.4195 H   0  0  0  0  0  0  0  0  0  0  0  0
   -5.2006   13.4995   -1.9577 H   0  0  0  0  0  0  0  0  0  0  0  0
   -5.4815   15.2508   -1.9133 H   0  0  0  0  0  0  0  0  0  0  0  0
   -1.2652   15.8839   -4.8474 H   0  0  0  0  0  0  0  0  0  0  0  0
   -1.1865   15.9604   -2.3009 H   0  0  0  0  0  0  0  0  0  0  0  0
   -0.9141   14.2060   -2.3057 H   0  0  0  0  0  0  0  0  0  0  0  0
  1  3  1  0  0  0  0
  1 12  2  0  0  0  0
  2 12  1  0  0  0  0
  2 13  2  0  0  0  0
  3  4  2  0  0  0  0
  3  6  1  0  0  0  0
  4 13  1  0  0  0  0
  4 14  1  0  0  0  0
  5 11  1  0  0  0  0
  5 14  1  0  0  0  0
  5 15  2  0  0  0  0
  6  9  1  0  0  0  0
  7  8  1  0  0  0  0
  7 10  1  0  0  0  0
  8 10  1  0  0  0  0
  9 14  1  0  0  0  0
 10 11  1  0  0  0  0
  1 16  1  0  0  0  0
  2 17  1  0  0  0  0
  6 18  1  0  0  0  0
  6 19  1  0  0  0  0
  7 20  1  0  0  0  0
  7 21  1  0  0  0  0
  8 22  1  0  0  0  0
  8 23  1  0  0  0  0
  9 24  1  0  0  0  0
  9 25  1  0  0  0  0
 10 26  1  0  0  0  0
 11 27  1  0  0  0  0
 11 28  1  0  0  0  0
M  END
> <HYBRID receptor title>
5S18(A) > WOY(A-201)

> <HYBRID receptor filename>
5s18.oedu

> <HYBRID Chemgauss4 score>
-6.491133

> <HYBRID receptor title>
5S18(A) > WOY(A-201)

> <HYBRID receptor filename>
5s18.oedu

> <Dock Type>
Hybrid

$$$$
MOL0125_1
  -OEChem-06022418243D

 22 23  0     1  0  0  0  0  0999 V2000
   -2.6160   14.9667    1.4812 C   0  0  0  0  0  0  0  0  0  0  0  0
   -0.4303   14.5912    0.9903 C   0  0  0  0  0  0  0  0  0  0  0  0
   -2.9607   14.9125    0.1413 C   0  0  0  0  0  0  0  0  0  0  0  0
   -1.9162   14.6597   -0.7406 C   0  0  0  0  0  0  0  0  0  0  0  0
   -4.3819   15.0386   -0.3282 C   0  0  0  0  0  0  0  0  0  0  0  0
   -2.1845   14.6124   -2.2207 C   0  0  0  0  0  0  0  0  0  0  0  0
   -3.6669   14.3997   -2.5470 C   0  0  0  0  0  0  0  0  0  0  0  0
   -5.8857   15.2838   -2.1980 C   0  0  0  0  0  0  0  0  0  0  0  0
   -1.3570   14.8145    1.9397 N   0  0  0  0  0  0  0  0  0  0  0  0
   -0.6346   14.5054   -0.3379 N   0  0  0  0  0  0  0  0  0  0  0  0
   -4.4889   15.3365   -1.7685 N   0  0  1  0  0  0  0  0  0  0  0  0
   -3.3641   15.1363    2.2492 H   0  0  0  0  0  0  0  0  0  0  0  0
    0.5904   14.4673    1.3306 H   0  0  0  0  0  0  0  0  0  0  0  0
   -4.9011   14.1014   -0.0867 H   0  0  0  0  0  0  0  0  0  0  0  0
   -4.8654   15.8484    0.2321 H   0  0  0  0  0  0  0  0  0  0  0  0
   -1.8448   15.5610   -2.6552 H   0  0  0  0  0  0  0  0  0  0  0  0
   -1.5936   13.8091   -2.6758 H   0  0  0  0  0  0  0  0  0  0  0  0
   -3.8067   14.5665   -3.6220 H   0  0  0  0  0  0  0  0  0  0  0  0
   -3.9565   13.3607   -2.3384 H   0  0  0  0  0  0  0  0  0  0  0  0
   -5.9479   15.5080   -3.2731 H   0  0  0  0  0  0  0  0  0  0  0  0
   -6.2895   14.2781   -2.0093 H   0  0  0  0  0  0  0  0  0  0  0  0
   -6.4707   16.0255   -1.6344 H   0  0  0  0  0  0  0  0  0  0  0  0
  1  3  1  0  0  0  0
  1  9  2  0  0  0  0
  2  9  1  0  0  0  0
  2 10  2  0  0  0  0
  3  4  2  0  0  0  0
  3  5  1  0  0  0  0
  4  6  1  0  0  0  0
  4 10  1  0  0  0  0
  5 11  1  0  0  0  0
  6  7  1  0  0  0  0
  7 11  1  0  0  0  0
  8 11  1  0  0  0  0
  1 12  1  0  0  0  0
  2 13  1  0  0  0  0
  5 14  1  0  0  0  0
  5 15  1  0  0  0  0
  6 16  1  0  0  0  0
  6 17  1  0  0  0  0
  7 18  1  0  0  0  0
  7 19  1  0  0  0  0
  8 20  1  0  0  0  0
  8 21  1  0  0  0  0
  8 22  1  0  0  0  0
M  END
> <HYBRID receptor title>
5S18(A) > WOY(A-201)

> <HYBRID receptor filename>
5s18.oedu

> <HYBRID Chemgauss4 score>
-6.489762

> <HYBRID receptor title>
5S18(A) > WOY(A-201)

> <HYBRID receptor filename>
5s18.oedu

> <Dock Type>
Hybrid

$$$$
MOL0196_3
  -OEChem-06022418243D

 28 30  0     1  0  0  0  0  0999 V2000
   -1.1289   14.4564   -0.8033 C   0  0  0  0  0  0  0  0  0  0  0  0
    0.0783   14.9998    1.0600 C   0  0  0  0  0  0  0  0  0  0  0  0
   -2.2863   14.5826   -0.0786 C   0  0  0  0  0  0  0  0  0  0  0  0
   -2.1731   14.9191    1.2629 C   0  0  0  0  0  0  0  0  0  0  0  0
   -6.1347   13.8117   -2.2585 C   0  0  0  0  0  0  0  0  0  0  0  0
   -4.9655   13.1642   -2.9867 C   0  0  0  0  0  0  0  0  0  0  0  0
   -5.5980   15.1365   -1.7363 C   0  0  0  0  0  0  0  0  0  0  0  0
   -3.8116   14.1465   -2.8463 C   0  0  0  0  0  0  0  0  0  0  0  0
   -4.4308   14.9456    0.7996 C   0  0  0  0  0  0  0  0  0  0  0  0
   -3.7157   14.3538   -0.4428 C   0  0  1  0  0  0  0  0  0  0  0  0
    0.0840   14.6692   -0.2529 N   0  0  0  0  0  0  0  0  0  0  0  0
   -0.9944   15.1369    1.8691 N   0  0  0  0  0  0  0  0  0  0  0  0
   -3.4407   14.9844    1.8638 N   0  0  0  0  0  0  0  0  0  0  0  0
   -4.1355   15.0035   -1.6981 N   0  0  0  0  0  0  0  0  0  0  0  0
   -1.1292   14.1748   -1.8494 H   0  0  0  0  0  0  0  0  0  0  0  0
    1.0470   15.1724    1.5139 H   0  0  0  0  0  0  0  0  0  0  0  0
   -6.9946   13.9617   -2.9209 H   0  0  0  0  0  0  0  0  0  0  0  0
   -6.4595   13.1697   -1.4299 H   0  0  0  0  0  0  0  0  0  0  0  0
   -4.7185   12.2046   -2.5155 H   0  0  0  0  0  0  0  0  0  0  0  0
   -5.1989   12.9689   -4.0394 H   0  0  0  0  0  0  0  0  0  0  0  0
   -5.9100   15.9572   -2.4161 H   0  0  0  0  0  0  0  0  0  0  0  0
   -6.0126   15.3745   -0.7367 H   0  0  0  0  0  0  0  0  0  0  0  0
   -2.8474   13.6192   -2.7034 H   0  0  0  0  0  0  0  0  0  0  0  0
   -3.7149   14.7417   -3.7790 H   0  0  0  0  0  0  0  0  0  0  0  0
   -4.7839   15.9681    0.6131 H   0  0  0  0  0  0  0  0  0  0  0  0
   -5.3002   14.3424    1.0825 H   0  0  0  0  0  0  0  0  0  0  0  0
   -3.8965   13.2737   -0.4993 H   0  0  0  0  0  0  0  0  0  0  0  0
   -3.5998   15.2908    2.8112 H   0  0  0  0  0  0  0  0  0  0  0  0
  1  3  1  0  0  0  0
  1 11  2  0  0  0  0
  2 11  1  0  0  0  0
  2 12  2  0  0  0  0
  3  4  2  0  0  0  0
  3 10  1  0  0  0  0
  4 12  1  0  0  0  0
  4 13  1  0  0  0  0
  5  6  1  0  0  0  0
  5  7  1  0  0  0  0
  6  8  1  0  0  0  0
  7 14  1  0  0  0  0
  8 14  1  0  0  0  0
  9 10  1  0  0  0  0
  9 13  1  0  0  0  0
 10 14  1  0  0  0  0
  1 15  1  0  0  0  0
  2 16  1  0  0  0  0
  5 17  1  0  0  0  0
  5 18  1  0  0  0  0
  6 19  1  0  0  0  0
  6 20  1  0  0  0  0
  7 21  1  0  0  0  0
  7 22  1  0  0  0  0
  8 23  1  0  0  0  0
  8 24  1  0  0  0  0
  9 25  1  0  0  0  0
  9 26  1  0  0  0  0
 10 27  1  0  0  0  0
 13 28  1  0  0  0  0
M  END
> <HYBRID receptor title>
5S18(A) > WOY(A-201)

> <HYBRID receptor filename>
5s18.oedu

> <HYBRID Chemgauss4 score>
-6.487581

> <HYBRID receptor title>
5S18(A) > WOY(A-201)

> <HYBRID receptor filename>
5s18.oedu

> <Dock Type>
Hybrid

$$$$
MOL0114_4
  -OEChem-06022418243D

 32 34  0     1  0  0  0  0  0999 V2000
   -2.5429   14.9354    1.4757 C   0  0  0  0  0  0  0  0  0  0  0  0
   -0.2672   14.8630    1.2881 C   0  0  0  0  0  0  0  0  0  0  0  0
   -2.6463   14.8422    0.1123 C   0  0  0  0  0  0  0  0  0  0  0  0
   -1.4763   14.7634   -0.6223 C   0  0  0  0  0  0  0  0  0  0  0  0
   -3.8419   14.8279   -0.7736 C   0  0  0  0  0  0  0  0  0  0  0  0
   -5.0131   13.7977   -5.3806 C   0  0  0  0  0  0  0  0  0  0  0  0
   -5.7083   14.0388   -4.0444 C   0  0  0  0  0  0  0  0  0  0  0  0
   -3.5006   13.9657   -5.2729 C   0  0  0  0  0  0  0  0  0  0  0  0
   -5.1219   13.1644   -2.9373 C   0  0  0  0  0  0  0  0  0  0  0  0
   -2.9135   13.0910   -4.1664 C   0  0  0  0  0  0  0  0  0  0  0  0
   -3.5976   13.2994   -2.8073 C   0  0  0  0  0  0  0  0  0  0  0  0
   -3.2007   14.6357   -2.1737 C   0  0  2  0  0  0  0  0  0  0  0  0
   -1.3476   14.9462    2.0998 N   0  0  0  0  0  0  0  0  0  0  0  0
   -0.2565   14.7715   -0.0595 N   0  0  0  0  0  0  0  0  0  0  0  0
   -1.7560   14.6761   -1.9903 N   0  0  0  0  0  0  0  0  0  0  0  0
   -3.4129   15.0057    2.1172 H   0  0  0  0  0  0  0  0  0  0  0  0
    0.7001   14.8712    1.7765 H   0  0  0  0  0  0  0  0  0  0  0  0
   -4.5248   14.0161   -0.5050 H   0  0  0  0  0  0  0  0  0  0  0  0
   -4.3620   15.7897   -0.7170 H   0  0  0  0  0  0  0  0  0  0  0  0
   -5.2470   12.7881   -5.7409 H   0  0  0  0  0  0  0  0  0  0  0  0
   -5.4054   14.5008   -6.1275 H   0  0  0  0  0  0  0  0  0  0  0  0
   -5.6167   15.0952   -3.7671 H   0  0  0  0  0  0  0  0  0  0  0  0
   -6.7799   13.8274   -4.1464 H   0  0  0  0  0  0  0  0  0  0  0  0
   -3.0346   13.7033   -6.2306 H   0  0  0  0  0  0  0  0  0  0  0  0
   -3.2600   15.0170   -5.0783 H   0  0  0  0  0  0  0  0  0  0  0  0
   -5.6021   13.4284   -1.9792 H   0  0  0  0  0  0  0  0  0  0  0  0
   -5.3883   12.1118   -3.1298 H   0  0  0  0  0  0  0  0  0  0  0  0
   -2.9906   12.0322   -4.4646 H   0  0  0  0  0  0  0  0  0  0  0  0
   -1.8341   13.3029   -4.0762 H   0  0  0  0  0  0  0  0  0  0  0  0
   -3.2462   12.4938   -2.1282 H   0  0  0  0  0  0  0  0  0  0  0  0
   -3.5123   15.4478   -2.8395 H   0  0  0  0  0  0  0  0  0  0  0  0
   -1.0610   14.5899   -2.7153 H   0  0  0  0  0  0  0  0  0  0  0  0
  1  3  1  0  0  0  0
  1 13  2  0  0  0  0
  2 13  1  0  0  0  0
  2 14  2  0  0  0  0
  3  4  2  0  0  0  0
  3  5  1  0  0  0  0
  4 14  1  0  0  0  0
  4 15  1  0  0  0  0
  5 12  1  0  0  0  0
  6  7  1  0  0  0  0
  6  8  1  0  0  0  0
  7  9  1  0  0  0  0
  8 10  1  0  0  0  0
  9 11  1  0  0  0  0
 10 11  1  0  0  0  0
 11 12  1  0  0  0  0
 12 15  1  0  0  0  0
  1 16  1  0  0  0  0
  2 17  1  0  0  0  0
  5 18  1  0  0  0  0
  5 19  1  0  0  0  0
  6 20  1  0  0  0  0
  6 21  1  0  0  0  0
  7 22  1  0  0  0  0
  7 23  1  0  0  0  0
  8 24  1  0  0  0  0
  8 25  1  0  0  0  0
  9 26  1  0  0  0  0
  9 27  1  0  0  0  0
 10 28  1  0  0  0  0
 10 29  1  0  0  0  0
 11 30  1  0  0  0  0
 12 31  1  0  0  0  0
 15 32  1  0  0  0  0
M  END
> <HYBRID receptor title>
5S18(A) > WOY(A-201)

> <HYBRID receptor filename>
5s18.oedu

> <HYBRID Chemgauss4 score>
-6.485625

> <HYBRID receptor title>
5S18(A) > WOY(A-201)

> <HYBRID receptor filename>
5s18.oedu

> <Dock Type>
Hybrid

$$$$
MOL0006_1
  -OEChem-06022418243D

 22 23  0     0  0  0  0  0  0999 V2000
   -1.3653   14.8241   -0.8014 C   0  0  0  0  0  0  0  0  0  0  0  0
   -0.1025   14.9872    1.0951 C   0  0  0  0  0  0  0  0  0  0  0  0
   -2.5051   14.8740   -0.0383 C   0  0  0  0  0  0  0  0  0  0  0  0
   -2.3527   14.9869    1.3355 C   0  0  0  0  0  0  0  0  0  0  0  0
   -4.6219   14.7115    0.9882 C   0  0  0  0  0  0  0  0  0  0  0  0
   -3.9574   14.8562   -0.4168 C   0  0  0  0  0  0  0  0  0  0  0  0
   -4.3121   13.6750   -1.3228 C   0  0  0  0  0  0  0  0  0  0  0  0
   -4.3569   16.1799   -1.0801 C   0  0  0  0  0  0  0  0  0  0  0  0
   -0.1343   14.8767   -0.2532 N   0  0  0  0  0  0  0  0  0  0  0  0
   -1.1543   15.0488    1.9396 N   0  0  0  0  0  0  0  0  0  0  0  0
   -3.6000   15.0326    1.9720 N   0  0  0  0  0  0  0  0  0  0  0  0
   -1.3964   14.7449   -1.8814 H   0  0  0  0  0  0  0  0  0  0  0  0
    0.8806   15.0317    1.5486 H   0  0  0  0  0  0  0  0  0  0  0  0
   -5.4916   15.3670    1.1065 H   0  0  0  0  0  0  0  0  0  0  0  0
   -4.9598   13.6823    1.1621 H   0  0  0  0  0  0  0  0  0  0  0  0
   -5.3714   13.7068   -1.5679 H   0  0  0  0  0  0  0  0  0  0  0  0
   -4.0900   12.7414   -0.8107 H   0  0  0  0  0  0  0  0  0  0  0  0
   -3.7294   13.7291   -2.2398 H   0  0  0  0  0  0  0  0  0  0  0  0
   -5.4098   16.1488   -1.3469 H   0  0  0  0  0  0  0  0  0  0  0  0
   -3.7612   16.3309   -1.9763 H   0  0  0  0  0  0  0  0  0  0  0  0
   -4.1832   16.9995   -0.3880 H   0  0  0  0  0  0  0  0  0  0  0  0
   -3.7261   15.0478    2.9721 H   0  0  0  0  0  0  0  0  0  0  0  0
  1  3  1  0  0  0  0
  1  9  2  0  0  0  0
  2  9  1  0  0  0  0
  2 10  2  0  0  0  0
  3  4  2  0  0  0  0
  3  6  1  0  0  0  0
  4 10  1  0  0  0  0
  4 11  1  0  0  0  0
  5  6  1  0  0  0  0
  5 11  1  0  0  0  0
  6  7  1  0  0  0  0
  6  8  1  0  0  0  0
  1 12  1  0  0  0  0
  2 13  1  0  0  0  0
  5 14  1  0  0  0  0
  5 15  1  0  0  0  0
  7 16  1  0  0  0  0
  7 17  1  0  0  0  0
  7 18  1  0  0  0  0
  8 19  1  0  0  0  0
  8 20  1  0  0  0  0
  8 21  1  0  0  0  0
 11 22  1  0  0  0  0
M  END
> <HYBRID receptor title>
5S18(A) > WOY(A-201)

> <HYBRID receptor filename>
5s18.oedu

> <HYBRID Chemgauss4 score>
-6.476536

> <HYBRID receptor title>
5S18(A) > WOY(A-201)

> <HYBRID receptor filename>
5s18.oedu

> <Dock Type>
Hybrid

$$$$
MOL0059_1
  -OEChem-06022418243D

 21 22  0     0  0  0  0  0  0999 V2000
   -2.8076   15.1214    1.3324 C   0  0  0  0  0  0  0  0  0  0  0  0
   -0.5638   14.9856    0.9162 C   0  0  0  0  0  0  0  0  0  0  0  0
   -3.0632   14.8776    0.0072 C   0  0  0  0  0  0  0  0  0  0  0  0
   -1.9740   14.6931   -0.8217 C   0  0  0  0  0  0  0  0  0  0  0  0
   -1.5788   14.2307   -3.2116 C   0  0  0  0  0  0  0  0  0  0  0  0
   -4.3605   14.7747   -0.7127 C   0  0  0  0  0  0  0  0  0  0  0  0
   -3.8968   14.4910   -2.1486 C   0  0  0  0  0  0  0  0  0  0  0  0
   -2.2790   13.9993   -4.5280 C   0  0  0  0  0  0  0  0  0  0  0  0
   -1.5512   15.1817    1.8215 N   0  0  0  0  0  0  0  0  0  0  0  0
   -0.6987   14.7398   -0.4041 N   0  0  0  0  0  0  0  0  0  0  0  0
   -2.4207   14.4558   -2.1363 N   0  0  0  0  0  0  0  0  0  0  0  0
   -0.3484   14.2097   -3.1570 O   0  0  0  0  0  0  0  0  0  0  0  0
   -3.6022   15.2767    2.0526 H   0  0  0  0  0  0  0  0  0  0  0  0
    0.4500   15.0306    1.2960 H   0  0  0  0  0  0  0  0  0  0  0  0
   -4.9638   13.9501   -0.3215 H   0  0  0  0  0  0  0  0  0  0  0  0
   -4.9184   15.7138   -0.6551 H   0  0  0  0  0  0  0  0  0  0  0  0
   -4.2745   13.5286   -2.5114 H   0  0  0  0  0  0  0  0  0  0  0  0
   -4.2304   15.2712   -2.8416 H   0  0  0  0  0  0  0  0  0  0  0  0
   -2.4176   14.9521   -5.0275 H   0  0  0  0  0  0  0  0  0  0  0  0
   -3.2414   13.5345   -4.3407 H   0  0  0  0  0  0  0  0  0  0  0  0
   -1.6713   13.3427   -5.1417 H   0  0  0  0  0  0  0  0  0  0  0  0
  1  3  1  0  0  0  0
  1  9  2  0  0  0  0
  2  9  1  0  0  0  0
  2 10  2  0  0  0  0
  3  4  2  0  0  0  0
  3  6  1  0  0  0  0
  4 10  1  0  0  0  0
  4 11  1  0  0  0  0
  5  8  1  0  0  0  0
  5 11  1  0  0  0  0
  5 12  2  0  0  0  0
  6  7  1  0  0  0  0
  7 11  1  0  0  0  0
  1 13  1  0  0  0  0
  2 14  1  0  0  0  0
  6 15  1  0  0  0  0
  6 16  1  0  0  0  0
  7 17  1  0  0  0  0
  7 18  1  0  0  0  0
  8 19  1  0  0  0  0
  8 20  1  0  0  0  0
  8 21  1  0  0  0  0
M  END
> <HYBRID receptor title>
5S18(A) > WOY(A-201)

> <HYBRID receptor filename>
5s18.oedu

> <HYBRID Chemgauss4 score>
-6.470561

> <HYBRID receptor title>
5S18(A) > WOY(A-201)

> <HYBRID receptor filename>
5s18.oedu

> <Dock Type>
Hybrid

$$$$
MOL0162_2
  -OEChem-06022418243D

 25 26  0     1  0  0  0  0  0999 V2000
   -3.0466   15.1017    1.2582 C   0  0  0  0  0  0  0  0  0  0  0  0
   -0.8477   14.8853    0.7433 C   0  0  0  0  0  0  0  0  0  0  0  0
   -3.3963   15.0940   -0.0824 C   0  0  0  0  0  0  0  0  0  0  0  0
   -2.3469   14.9405   -0.9847 C   0  0  0  0  0  0  0  0  0  0  0  0
   -4.8248   15.1810   -0.5291 C   0  0  0  0  0  0  0  0  0  0  0  0
   -4.1189   14.7041   -2.7779 C   0  0  0  0  0  0  0  0  0  0  0  0
   -2.6302   14.9609   -2.4753 C   0  0  2  0  0  0  0  0  0  0  0  0
   -2.0563   12.5525   -2.8199 C   0  0  0  0  0  0  0  0  0  0  0  0
   -1.7698   13.9543   -3.2433 C   0  0  0  0  0  0  0  0  0  0  0  0
   -1.7792   15.0013    1.7056 N   0  0  0  0  0  0  0  0  0  0  0  0
   -1.0559   14.8545   -0.5868 N   0  0  0  0  0  0  0  0  0  0  0  0
   -4.9655   15.5547   -1.9404 N   0  0  0  0  0  0  0  0  0  0  0  0
   -3.7991   15.1917    2.0355 H   0  0  0  0  0  0  0  0  0  0  0  0
    0.1814   14.8096    1.0724 H   0  0  0  0  0  0  0  0  0  0  0  0
   -5.3119   14.2143   -0.3514 H   0  0  0  0  0  0  0  0  0  0  0  0
   -5.3488   15.9331    0.0714 H   0  0  0  0  0  0  0  0  0  0  0  0
   -4.3185   14.9328   -3.8313 H   0  0  0  0  0  0  0  0  0  0  0  0
   -4.3798   13.6481   -2.6271 H   0  0  0  0  0  0  0  0  0  0  0  0
   -2.3764   15.9701   -2.8279 H   0  0  0  0  0  0  0  0  0  0  0  0
   -1.8583   12.4472   -1.7467 H   0  0  0  0  0  0  0  0  0  0  0  0
   -1.4159   11.8429   -3.3544 H   0  0  0  0  0  0  0  0  0  0  0  0
   -3.1059   12.2961   -2.9984 H   0  0  0  0  0  0  0  0  0  0  0  0
   -1.9654   14.0647   -4.3120 H   0  0  0  0  0  0  0  0  0  0  0  0
   -0.7166   14.1845   -3.0700 H   0  0  0  0  0  0  0  0  0  0  0  0
   -5.9405   15.4444   -2.2179 H   0  0  0  0  0  0  0  0  0  0  0  0
  1  3  1  0  0  0  0
  1 10  2  0  0  0  0
  2 10  1  0  0  0  0
  2 11  2  0  0  0  0
  3  4  2  0  0  0  0
  3  5  1  0  0  0  0
  4  7  1  0  0  0  0
  4 11  1  0  0  0  0
  5 12  1  0  0  0  0
  6  7  1  0  0  0  0
  6 12  1  0  0  0  0
  7  9  1  0  0  0  0
  8  9  1  0  0  0  0
  1 13  1  0  0  0  0
  2 14  1  0  0  0  0
  5 15  1  0  0  0  0
  5 16  1  0  0  0  0
  6 17  1  0  0  0  0
  6 18  1  0  0  0  0
  7 19  1  0  0  0  0
  8 20  1  0  0  0  0
  8 21  1  0  0  0  0
  8 22  1  0  0  0  0
  9 23  1  0  0  0  0
  9 24  1  0  0  0  0
 12 25  1  0  0  0  0
M  END
> <HYBRID receptor title>
5S18(A) > WOY(A-201)

> <HYBRID receptor filename>
5s18.oedu

> <HYBRID Chemgauss4 score>
-6.461701

> <HYBRID receptor title>
5S18(A) > WOY(A-201)

> <HYBRID receptor filename>
5s18.oedu

> <Dock Type>
Hybrid

$$$$
MOL0163_1
  -OEChem-06022418243D

 21 22  0     0  0  0  0  0  0999 V2000
   -0.0923   14.7897    1.3688 C   0  0  0  0  0  0  0  0  0  0  0  0
   -0.0770   14.7556   -0.0081 C   0  0  0  0  0  0  0  0  0  0  0  0
   -2.3765   14.6822    1.3463 C   0  0  0  0  0  0  0  0  0  0  0  0
   -2.3614   14.6489   -0.0308 C   0  0  0  0  0  0  0  0  0  0  0  0
   -3.7905   14.5265   -2.1185 C   0  0  0  0  0  0  0  0  0  0  0  0
   -5.2803   14.5513   -2.3746 C   0  0  0  0  0  0  0  0  0  0  0  0
   -5.8704   14.0971   -1.0546 C   0  0  0  0  0  0  0  0  0  0  0  0
   -4.8801   14.6126   -0.0313 C   0  0  0  0  0  0  0  0  0  0  0  0
   -1.2423   14.7536    2.0708 N   0  0  0  0  0  0  0  0  0  0  0  0
   -1.2113   14.6846   -0.7327 N   0  0  0  0  0  0  0  0  0  0  0  0
   -3.6061   14.5702   -0.7227 N   0  0  0  0  0  0  0  0  0  0  0  0
   -2.9677   14.5301   -3.0226 O   0  0  0  0  0  0  0  0  0  0  0  0
    0.8195   14.8466    1.9503 H   0  0  0  0  0  0  0  0  0  0  0  0
    0.8473   14.7844   -0.5714 H   0  0  0  0  0  0  0  0  0  0  0  0
   -3.2953   14.6537    1.9211 H   0  0  0  0  0  0  0  0  0  0  0  0
   -5.5774   15.5762   -2.6186 H   0  0  0  0  0  0  0  0  0  0  0  0
   -5.5474   13.8792   -3.1936 H   0  0  0  0  0  0  0  0  0  0  0  0
   -6.8814   14.4825   -0.8949 H   0  0  0  0  0  0  0  0  0  0  0  0
   -5.9121   13.0016   -1.0188 H   0  0  0  0  0  0  0  0  0  0  0  0
   -5.0890   15.6531    0.2410 H   0  0  0  0  0  0  0  0  0  0  0  0
   -4.8543   13.9920    0.8696 H   0  0  0  0  0  0  0  0  0  0  0  0
  1  2  2  0  0  0  0
  1  9  1  0  0  0  0
  2 10  1  0  0  0  0
  3  4  1  0  0  0  0
  3  9  2  0  0  0  0
  4 10  2  0  0  0  0
  4 11  1  0  0  0  0
  5  6  1  0  0  0  0
  5 11  1  0  0  0  0
  5 12  2  0  0  0  0
  6  7  1  0  0  0  0
  7  8  1  0  0  0  0
  8 11  1  0  0  0  0
  1 13  1  0  0  0  0
  2 14  1  0  0  0  0
  3 15  1  0  0  0  0
  6 16  1  0  0  0  0
  6 17  1  0  0  0  0
  7 18  1  0  0  0  0
  7 19  1  0  0  0  0
  8 20  1  0  0  0  0
  8 21  1  0  0  0  0
M  END
> <HYBRID receptor title>
5S18(A) > WOY(A-201)

> <HYBRID receptor filename>
5s18.oedu

> <HYBRID Chemgauss4 score>
-6.424680

> <HYBRID receptor title>
5S18(A) > WOY(A-201)

> <HYBRID receptor filename>
5s18.oedu

> <Dock Type>
Hybrid

$$$$
MOL0188_1
  -OEChem-06022418243D

 22 23  0     1  0  0  0  0  0999 V2000
   -1.1409   14.6049   -0.9862 C   0  0  0  0  0  0  0  0  0  0  0  0
   -0.0610   15.0973    0.9666 C   0  0  0  0  0  0  0  0  0  0  0  0
   -2.3325   14.5724   -0.3084 C   0  0  0  0  0  0  0  0  0  0  0  0
   -2.3037   14.8134    1.0569 C   0  0  0  0  0  0  0  0  0  0  0  0
   -4.5381   14.6640    0.4973 C   0  0  0  0  0  0  0  0  0  0  0  0
   -3.7225   14.2644   -0.7604 C   0  0  1  0  0  0  0  0  0  0  0  0
   -5.5803   14.7235   -2.3687 C   0  0  0  0  0  0  0  0  0  0  0  0
   -4.1600   15.0208   -2.0047 C   0  0  0  0  0  0  0  0  0  0  0  0
    0.0260   14.8741   -0.3656 N   0  0  0  0  0  0  0  0  0  0  0  0
   -1.1736   15.0807    1.7321 N   0  0  0  0  0  0  0  0  0  0  0  0
   -3.5943   14.7334    1.6005 N   0  0  0  0  0  0  0  0  0  0  0  0
   -1.0750   14.4113   -2.0500 H   0  0  0  0  0  0  0  0  0  0  0  0
    0.8700   15.3132    1.4774 H   0  0  0  0  0  0  0  0  0  0  0  0
   -5.0134   15.6445    0.3713 H   0  0  0  0  0  0  0  0  0  0  0  0
   -5.3278   13.9335    0.7024 H   0  0  0  0  0  0  0  0  0  0  0  0
   -3.8081   13.1831   -0.9248 H   0  0  0  0  0  0  0  0  0  0  0  0
   -5.7029   13.6478   -2.5408 H   0  0  0  0  0  0  0  0  0  0  0  0
   -5.8645   15.2488   -3.2867 H   0  0  0  0  0  0  0  0  0  0  0  0
   -6.2582   15.0177   -1.5605 H   0  0  0  0  0  0  0  0  0  0  0  0
   -4.0473   16.0971   -1.8349 H   0  0  0  0  0  0  0  0  0  0  0  0
   -3.5076   14.7517   -2.8424 H   0  0  0  0  0  0  0  0  0  0  0  0
   -3.8188   14.9442    2.5605 H   0  0  0  0  0  0  0  0  0  0  0  0
  1  3  1  0  0  0  0
  1  9  2  0  0  0  0
  2  9  1  0  0  0  0
  2 10  2  0  0  0  0
  3  4  2  0  0  0  0
  3  6  1  0  0  0  0
  4 10  1  0  0  0  0
  4 11  1  0  0  0  0
  5  6  1  0  0  0  0
  5 11  1  0  0  0  0
  6  8  1  0  0  0  0
  7  8  1  0  0  0  0
  1 12  1  0  0  0  0
  2 13  1  0  0  0  0
  5 14  1  0  0  0  0
  5 15  1  0  0  0  0
  6 16  1  0  0  0  0
  7 17  1  0  0  0  0
  7 18  1  0  0  0  0
  7 19  1  0  0  0  0
  8 20  1  0  0  0  0
  8 21  1  0  0  0  0
 11 22  1  0  0  0  0
M  END
> <HYBRID receptor title>
5S18(A) > WOY(A-201)

> <HYBRID receptor filename>
5s18.oedu

> <HYBRID Chemgauss4 score>
-6.419456

> <HYBRID receptor title>
5S18(A) > WOY(A-201)

> <HYBRID receptor filename>
5s18.oedu

> <Dock Type>
Hybrid

$$$$
MOL0035_1
  -OEChem-06022418243D

 19 20  0     1  0  0  0  0  0999 V2000
   -1.4240   14.4963   -0.7680 C   0  0  0  0  0  0  0  0  0  0  0  0
   -0.1041   14.7879    1.0745 C   0  0  0  0  0  0  0  0  0  0  0  0
   -2.5352   14.7178    0.0043 C   0  0  0  0  0  0  0  0  0  0  0  0
   -2.3418   14.9687    1.3544 C   0  0  0  0  0  0  0  0  0  0  0  0
   -4.5998   15.2696    0.9818 C   0  0  0  0  0  0  0  0  0  0  0  0
   -3.9923   14.6929   -0.3240 C   0  0  1  0  0  0  0  0  0  0  0  0
   -4.3727   15.5036   -1.5528 C   0  0  0  0  0  0  0  0  0  0  0  0
   -0.1781   14.5313   -0.2526 N   0  0  0  0  0  0  0  0  0  0  0  0
   -1.1275   15.0102    1.9273 N   0  0  0  0  0  0  0  0  0  0  0  0
   -3.5707   15.1618    2.0025 N   0  0  0  0  0  0  0  0  0  0  0  0
   -1.4897   14.2772   -1.8268 H   0  0  0  0  0  0  0  0  0  0  0  0
    0.8915   14.8171    1.5013 H   0  0  0  0  0  0  0  0  0  0  0  0
   -4.8763   16.3243    0.8629 H   0  0  0  0  0  0  0  0  0  0  0  0
   -5.5002   14.7187    1.2733 H   0  0  0  0  0  0  0  0  0  0  0  0
   -4.3082   13.6495   -0.4460 H   0  0  0  0  0  0  0  0  0  0  0  0
   -4.0582   16.5412   -1.4308 H   0  0  0  0  0  0  0  0  0  0  0  0
   -5.4536   15.4792   -1.6994 H   0  0  0  0  0  0  0  0  0  0  0  0
   -3.8885   15.0917   -2.4396 H   0  0  0  0  0  0  0  0  0  0  0  0
   -3.6651   15.4286    2.9702 H   0  0  0  0  0  0  0  0  0  0  0  0
  1  3  1  0  0  0  0
  1  8  2  0  0  0  0
  2  8  1  0  0  0  0
  2  9  2  0  0  0  0
  3  4  2  0  0  0  0
  3  6  1  0  0  0  0
  4  9  1  0  0  0  0
  4 10  1  0  0  0  0
  5  6  1  0  0  0  0
  5 10  1  0  0  0  0
  6  7  1  0  0  0  0
  1 11  1  0  0  0  0
  2 12  1  0  0  0  0
  5 13  1  0  0  0  0
  5 14  1  0  0  0  0
  6 15  1  0  0  0  0
  7 16  1  0  0  0  0
  7 17  1  0  0  0  0
  7 18  1  0  0  0  0
 10 19  1  0  0  0  0
M  END
> <HYBRID receptor title>
5S18(A) > WOY(A-201)

> <HYBRID receptor filename>
5s18.oedu

> <HYBRID Chemgauss4 score>
-6.414630

> <HYBRID receptor title>
5S18(A) > WOY(A-201)

> <HYBRID receptor filename>
5s18.oedu

> <Dock Type>
Hybrid

$$$$
MOL0057_24
  -OEChem-06022418243D

 26 27  0     1  0  0  0  0  0999 V2000
   -2.9126   15.2340    1.1471 C   0  0  0  0  0  0  0  0  0  0  0  0
   -0.7280   14.8573    0.5959 C   0  0  0  0  0  0  0  0  0  0  0  0
   -3.2460   15.1622   -0.1800 C   0  0  0  0  0  0  0  0  0  0  0  0
   -2.2305   14.9393   -1.0996 C   0  0  0  0  0  0  0  0  0  0  0  0
   -4.5553   15.3199   -0.8657 C   0  0  0  0  0  0  0  0  0  0  0  0
   -4.2041   14.8116   -2.2789 C   0  0  0  0  0  0  0  0  0  0  0  0
   -1.7061   12.8780   -3.3091 C   0  0  0  0  0  0  0  0  0  0  0  0
   -2.0134   14.3565   -3.5063 C   0  0  0  0  0  0  0  0  0  0  0  0
   -2.9628   12.0246   -3.1871 C   0  0  0  0  0  0  0  0  0  0  0  0
   -1.6418   15.0792    1.5697 N   0  0  0  0  0  0  0  0  0  0  0  0
   -0.9461   14.7779   -0.7350 N   0  0  0  0  0  0  0  0  0  0  0  0
   -2.7532   14.9175   -2.4062 N   0  0  2  0  0  0  0  0  0  0  0  0
   -3.7188   12.1500   -4.3843 O   0  0  0  0  0  0  0  0  0  0  0  0
   -3.6497   15.4184    1.9189 H   0  0  0  0  0  0  0  0  0  0  0  0
    0.2975   14.7310    0.9222 H   0  0  0  0  0  0  0  0  0  0  0  0
   -5.3410   14.7130   -0.4071 H   0  0  0  0  0  0  0  0  0  0  0  0
   -4.8501   16.3739   -0.8861 H   0  0  0  0  0  0  0  0  0  0  0  0
   -4.5080   13.7616   -2.3823 H   0  0  0  0  0  0  0  0  0  0  0  0
   -4.7222   15.3897   -3.0513 H   0  0  0  0  0  0  0  0  0  0  0  0
   -1.1114   12.5155   -4.1568 H   0  0  0  0  0  0  0  0  0  0  0  0
   -1.0801   12.7321   -2.4197 H   0  0  0  0  0  0  0  0  0  0  0  0
   -1.0826   14.9264   -3.5883 H   0  0  0  0  0  0  0  0  0  0  0  0
   -2.5957   14.5192   -4.4188 H   0  0  0  0  0  0  0  0  0  0  0  0
   -2.7132   10.9684   -3.0464 H   0  0  0  0  0  0  0  0  0  0  0  0
   -3.5817   12.3598   -2.3487 H   0  0  0  0  0  0  0  0  0  0  0  0
   -4.5093   11.5971   -4.2754 H   0  0  0  0  0  0  0  0  0  0  0  0
  1  3  1  0  0  0  0
  1 10  2  0  0  0  0
  2 10  1  0  0  0  0
  2 11  2  0  0  0  0
  3  4  2  0  0  0  0
  3  5  1  0  0  0  0
  4 11  1  0  0  0  0
  4 12  1  0  0  0  0
  5  6  1  0  0  0  0
  6 12  1  0  0  0  0
  7  8  1  0  0  0  0
  7  9  1  0  0  0  0
  8 12  1  0  0  0  0
  9 13  1  0  0  0  0
  1 14  1  0  0  0  0
  2 15  1  0  0  0  0
  5 16  1  0  0  0  0
  5 17  1  0  0  0  0
  6 18  1  0  0  0  0
  6 19  1  0  0  0  0
  7 20  1  0  0  0  0
  7 21  1  0  0  0  0
  8 22  1  0  0  0  0
  8 23  1  0  0  0  0
  9 24  1  0  0  0  0
  9 25  1  0  0  0  0
 13 26  1  0  0  0  0
M  END
> <HYBRID receptor title>
5S18(A) > WOY(A-201)

> <HYBRID receptor filename>
5s18.oedu

> <HYBRID Chemgauss4 score>
-6.402522

> <HYBRID receptor title>
5S18(A) > WOY(A-201)

> <HYBRID receptor filename>
5s18.oedu

> <Dock Type>
Hybrid

$$$$
MOL0047_1
  -OEChem-06022418243D

 20 21  0     0  0  0  0  0  0999 V2000
    0.1399   14.8747    1.0876 C   0  0  0  0  0  0  0  0  0  0  0  0
   -2.2475   14.9126   -0.1443 C   0  0  0  0  0  0  0  0  0  0  0  0
   -1.0695   14.6496   -0.8355 C   0  0  0  0  0  0  0  0  0  0  0  0
   -2.1133   15.1328    1.2154 C   0  0  0  0  0  0  0  0  0  0  0  0
   -3.5807   14.8848   -0.8275 C   0  0  0  0  0  0  0  0  0  0  0  0
   -1.1045   14.4317   -2.3266 C   0  0  0  0  0  0  0  0  0  0  0  0
   -3.4527   14.9638   -2.3516 C   0  0  0  0  0  0  0  0  0  0  0  0
    0.1436   14.6365   -0.2379 N   0  0  0  0  0  0  0  0  0  0  0  0
   -0.9308   15.1244    1.8633 N   0  0  0  0  0  0  0  0  0  0  0  0
   -2.4256   14.0356   -2.8284 N   0  0  0  0  0  0  0  0  0  0  0  0
   -3.2209   15.3851    1.9815 O   0  0  0  0  0  0  0  0  0  0  0  0
    1.1032   14.8631    1.5827 H   0  0  0  0  0  0  0  0  0  0  0  0
   -4.1201   13.9657   -0.5701 H   0  0  0  0  0  0  0  0  0  0  0  0
   -4.1727   15.7352   -0.4662 H   0  0  0  0  0  0  0  0  0  0  0  0
   -0.8012   15.3534   -2.8353 H   0  0  0  0  0  0  0  0  0  0  0  0
   -0.3676   13.6624   -2.5869 H   0  0  0  0  0  0  0  0  0  0  0  0
   -4.4131   14.7380   -2.8325 H   0  0  0  0  0  0  0  0  0  0  0  0
   -3.1866   15.9850   -2.6454 H   0  0  0  0  0  0  0  0  0  0  0  0
   -2.4136   14.0427   -3.8485 H   0  0  0  0  0  0  0  0  0  0  0  0
   -2.9583   15.5158    2.9034 H   0  0  0  0  0  0  0  0  0  0  0  0
  1  8  1  0  0  0  0
  1  9  2  0  0  0  0
  2  3  1  0  0  0  0
  2  4  2  0  0  0  0
  2  5  1  0  0  0  0
  3  6  1  0  0  0  0
  3  8  2  0  0  0  0
  4  9  1  0  0  0  0
  4 11  1  0  0  0  0
  5  7  1  0  0  0  0
  6 10  1  0  0  0  0
  7 10  1  0  0  0  0
  1 12  1  0  0  0  0
  5 13  1  0  0  0  0
  5 14  1  0  0  0  0
  6 15  1  0  0  0  0
  6 16  1  0  0  0  0
  7 17  1  0  0  0  0
  7 18  1  0  0  0  0
 10 19  1  0  0  0  0
 11 20  1  0  0  0  0
M  END
> <HYBRID receptor title>
5S18(A) > WOY(A-201)

> <HYBRID receptor filename>
5s18.oedu

> <HYBRID Chemgauss4 score>
-6.391768

> <HYBRID receptor title>
5S18(A) > WOY(A-201)

> <HYBRID receptor filename>
5s18.oedu

> <Dock Type>
Hybrid

$$$$
MOL0152_1
  -OEChem-06022418243D

 23 24  0     0  0  0  0  0  0999 V2000
   -0.0117   14.7633    0.8304 C   0  0  0  0  0  0  0  0  0  0  0  0
   -2.1457   14.8473   -0.7999 C   0  0  0  0  0  0  0  0  0  0  0  0
   -2.2661   15.0169    0.5754 C   0  0  0  0  0  0  0  0  0  0  0  0
   -0.8600   14.6532   -1.2739 C   0  0  0  0  0  0  0  0  0  0  0  0
   -3.3329   14.9432   -1.7089 C   0  0  0  0  0  0  0  0  0  0  0  0
   -3.6282   15.1991    1.1948 C   0  0  0  0  0  0  0  0  0  0  0  0
   -4.6565   14.8179   -0.9489 C   0  0  0  0  0  0  0  0  0  0  0  0
    0.5901   15.8325   -3.2787 C   0  0  0  0  0  0  0  0  0  0  0  0
   -1.2074   14.9674    1.4154 N   0  0  0  0  0  0  0  0  0  0  0  0
    0.2311   14.6022   -0.4832 N   0  0  0  0  0  0  0  0  0  0  0  0
   -4.6445   15.6662    0.2445 N   0  0  0  0  0  0  0  0  0  0  0  0
   -0.5034   14.4215   -3.0125 S   0  0  0  0  0  0  0  0  0  0  0  0
    0.8475   14.7255    1.4888 H   0  0  0  0  0  0  0  0  0  0  0  0
   -3.3460   15.9034   -2.2369 H   0  0  0  0  0  0  0  0  0  0  0  0
   -3.2669   14.1417   -2.4557 H   0  0  0  0  0  0  0  0  0  0  0  0
   -3.9628   14.2464    1.6202 H   0  0  0  0  0  0  0  0  0  0  0  0
   -3.5457   15.9120    2.0239 H   0  0  0  0  0  0  0  0  0  0  0  0
   -5.5016   15.0914   -1.5934 H   0  0  0  0  0  0  0  0  0  0  0  0
   -4.8129   13.7748   -0.6529 H   0  0  0  0  0  0  0  0  0  0  0  0
    0.9201   15.8558   -4.3202 H   0  0  0  0  0  0  0  0  0  0  0  0
    1.4653   15.7515   -2.6293 H   0  0  0  0  0  0  0  0  0  0  0  0
    0.0605   16.7607   -3.0508 H   0  0  0  0  0  0  0  0  0  0  0  0
   -5.5621   15.6355    0.6893 H   0  0  0  0  0  0  0  0  0  0  0  0
  1  9  1  0  0  0  0
  1 10  2  0  0  0  0
  2  3  1  0  0  0  0
  2  4  2  0  0  0  0
  2  5  1  0  0  0  0
  3  6  1  0  0  0  0
  3  9  2  0  0  0  0
  4 10  1  0  0  0  0
  4 12  1  0  0  0  0
  5  7  1  0  0  0  0
  6 11  1  0  0  0  0
  7 11  1  0  0  0  0
  8 12  1  0  0  0  0
  1 13  1  0  0  0  0
  5 14  1  0  0  0  0
  5 15  1  0  0  0  0
  6 16  1  0  0  0  0
  6 17  1  0  0  0  0
  7 18  1  0  0  0  0
  7 19  1  0  0  0  0
  8 20  1  0  0  0  0
  8 21  1  0  0  0  0
  8 22  1  0  0  0  0
 11 23  1  0  0  0  0
M  END
> <HYBRID receptor title>
5S18(A) > WOY(A-201)

> <HYBRID receptor filename>
5s18.oedu

> <HYBRID Chemgauss4 score>
-6.354830

> <HYBRID receptor title>
5S18(A) > WOY(A-201)

> <HYBRID receptor filename>
5s18.oedu

> <Dock Type>
Hybrid

$$$$
MOL0012_1
  -OEChem-06022418243D

 20 21  0     0  0  0  0  0  0999 V2000
   -2.4973   15.0220    1.6243 C   0  0  0  0  0  0  0  0  0  0  0  0
   -0.3301   14.8964    0.9643 C   0  0  0  0  0  0  0  0  0  0  0  0
   -2.9424   14.8894    0.3182 C   0  0  0  0  0  0  0  0  0  0  0  0
   -1.9472   14.7788   -0.6487 C   0  0  0  0  0  0  0  0  0  0  0  0
   -4.4030   14.9359   -0.0172 C   0  0  0  0  0  0  0  0  0  0  0  0
   -2.2960   14.5990   -2.1024 C   0  0  0  0  0  0  0  0  0  0  0  0
   -4.7051   14.4325   -1.4288 C   0  0  0  0  0  0  0  0  0  0  0  0
   -3.7245   15.0284   -2.4336 C   0  0  0  0  0  0  0  0  0  0  0  0
   -1.1976   15.0255    1.9828 N   0  0  0  0  0  0  0  0  0  0  0  0
   -0.6286   14.7700   -0.3423 N   0  0  0  0  0  0  0  0  0  0  0  0
   -3.1963   15.1351    2.4472 H   0  0  0  0  0  0  0  0  0  0  0  0
    0.7220   14.8941    1.2214 H   0  0  0  0  0  0  0  0  0  0  0  0
   -4.9732   14.3370    0.7029 H   0  0  0  0  0  0  0  0  0  0  0  0
   -4.7423   15.9752    0.0744 H   0  0  0  0  0  0  0  0  0  0  0  0
   -1.5939   15.1677   -2.7232 H   0  0  0  0  0  0  0  0  0  0  0  0
   -2.1681   13.5379   -2.3500 H   0  0  0  0  0  0  0  0  0  0  0  0
   -4.6343   13.3377   -1.4555 H   0  0  0  0  0  0  0  0  0  0  0  0
   -5.7336   14.6938   -1.7016 H   0  0  0  0  0  0  0  0  0  0  0  0
   -3.7996   16.1231   -2.4148 H   0  0  0  0  0  0  0  0  0  0  0  0
   -3.9798   14.7053   -3.4489 H   0  0  0  0  0  0  0  0  0  0  0  0
  1  3  1  0  0  0  0
  1  9  2  0  0  0  0
  2  9  1  0  0  0  0
  2 10  2  0  0  0  0
  3  4  2  0  0  0  0
  3  5  1  0  0  0  0
  4  6  1  0  0  0  0
  4 10  1  0  0  0  0
  5  7  1  0  0  0  0
  6  8  1  0  0  0  0
  7  8  1  0  0  0  0
  1 11  1  0  0  0  0
  2 12  1  0  0  0  0
  5 13  1  0  0  0  0
  5 14  1  0  0  0  0
  6 15  1  0  0  0  0
  6 16  1  0  0  0  0
  7 17  1  0  0  0  0
  7 18  1  0  0  0  0
  8 19  1  0  0  0  0
  8 20  1  0  0  0  0
M  END
> <HYBRID receptor title>
5S18(A) > WOY(A-201)

> <HYBRID receptor filename>
5s18.oedu

> <HYBRID Chemgauss4 score>
-6.350106

> <HYBRID receptor title>
5S18(A) > WOY(A-201)

> <HYBRID receptor filename>
5s18.oedu

> <Dock Type>
Hybrid

$$$$
MOL0168_2
  -OEChem-06022418243D

 22 23  0     1  0  0  0  0  0999 V2000
   -2.6375   15.2451    1.3343 C   0  0  0  0  0  0  0  0  0  0  0  0
   -0.4648   14.7390    0.8002 C   0  0  0  0  0  0  0  0  0  0  0  0
   -2.9570   15.2514    0.0035 C   0  0  0  0  0  0  0  0  0  0  0  0
   -1.9346   14.9692   -0.8747 C   0  0  0  0  0  0  0  0  0  0  0  0
   -4.2234   15.5759   -0.7018 C   0  0  0  0  0  0  0  0  0  0  0  0
   -3.8930   15.1728   -2.1547 C   0  0  0  0  0  0  0  0  0  0  0  0
   -2.1327   12.4966   -2.6922 C   0  0  0  0  0  0  0  0  0  0  0  0
   -1.3850   14.9788    1.7679 N   0  0  0  0  0  0  0  0  0  0  0  0
   -0.6612   14.7314   -0.5345 N   0  0  0  0  0  0  0  0  0  0  0  0
   -2.3927   15.0973   -2.2239 N   0  0  2  0  0  0  0  0  0  0  0  0
   -0.2411   14.1920   -3.3041 O   0  0  0  0  0  0  0  0  0  0  0  0
   -2.3851   14.2185   -4.6413 O   0  0  0  0  0  0  0  0  0  0  0  0
   -1.6865   14.0747   -3.3765 S   0  0  0  0  0  0  0  0  0  0  0  0
   -3.3721   15.4417    2.1057 H   0  0  0  0  0  0  0  0  0  0  0  0
    0.5416   14.5254    1.1404 H   0  0  0  0  0  0  0  0  0  0  0  0
   -5.0424   14.9648   -0.3080 H   0  0  0  0  0  0  0  0  0  0  0  0
   -4.4873   16.6350   -0.6328 H   0  0  0  0  0  0  0  0  0  0  0  0
   -4.3426   14.2111   -2.4186 H   0  0  0  0  0  0  0  0  0  0  0  0
   -4.2574   15.9411   -2.8476 H   0  0  0  0  0  0  0  0  0  0  0  0
   -1.7368   11.7149   -3.3425 H   0  0  0  0  0  0  0  0  0  0  0  0
   -1.6995   12.4193   -1.6938 H   0  0  0  0  0  0  0  0  0  0  0  0
   -3.2210   12.4381   -2.6426 H   0  0  0  0  0  0  0  0  0  0  0  0
  1  3  1  0  0  0  0
  1  8  2  0  0  0  0
  2  8  1  0  0  0  0
  2  9  2  0  0  0  0
  3  4  2  0  0  0  0
  3  5  1  0  0  0  0
  4  9  1  0  0  0  0
  4 10  1  0  0  0  0
  5  6  1  0  0  0  0
  6 10  1  0  0  0  0
  7 13  1  0  0  0  0
 10 13  1  0  0  0  0
 11 13  2  0  0  0  0
 12 13  2  0  0  0  0
  1 14  1  0  0  0  0
  2 15  1  0  0  0  0
  5 16  1  0  0  0  0
  5 17  1  0  0  0  0
  6 18  1  0  0  0  0
  6 19  1  0  0  0  0
  7 20  1  0  0  0  0
  7 21  1  0  0  0  0
  7 22  1  0  0  0  0
M  END
> <HYBRID receptor title>
5S18(A) > WOY(A-201)

> <HYBRID receptor filename>
5s18.oedu

> <HYBRID Chemgauss4 score>
-6.343694

> <HYBRID receptor title>
5S18(A) > WOY(A-201)

> <HYBRID receptor filename>
5s18.oedu

> <Dock Type>
Hybrid

$$$$
MOL0018_2
  -OEChem-06022418243D

 22 23  0     1  0  0  0  0  0999 V2000
   -2.8272   15.2570    1.3557 C   0  0  0  0  0  0  0  0  0  0  0  0
   -0.7437   14.5771    0.7115 C   0  0  0  0  0  0  0  0  0  0  0  0
   -3.2530   15.1367    0.0590 C   0  0  0  0  0  0  0  0  0  0  0  0
   -2.3336   14.7282   -0.8974 C   0  0  0  0  0  0  0  0  0  0  0  0
   -4.5763   15.4076   -0.5613 C   0  0  0  0  0  0  0  0  0  0  0  0
   -4.3813   14.7648   -1.9497 C   0  0  0  0  0  0  0  0  0  0  0  0
   -2.6321   12.5009   -3.1624 C   0  0  0  0  0  0  0  0  0  0  0  0
   -2.3454   13.9606   -3.2616 C   0  0  0  0  0  0  0  0  0  0  0  0
   -1.5589   14.9759    1.7161 N   0  0  0  0  0  0  0  0  0  0  0  0
   -1.0564   14.4348   -0.5951 N   0  0  0  0  0  0  0  0  0  0  0  0
   -2.9396   14.6821   -2.1668 N   0  0  2  0  0  0  0  0  0  0  0  0
   -3.4850   15.5831    2.1520 H   0  0  0  0  0  0  0  0  0  0  0  0
    0.2787   14.3478    0.9877 H   0  0  0  0  0  0  0  0  0  0  0  0
   -5.3969   14.9349   -0.0144 H   0  0  0  0  0  0  0  0  0  0  0  0
   -4.7444   16.4860   -0.6445 H   0  0  0  0  0  0  0  0  0  0  0  0
   -4.8141   13.7557   -1.9561 H   0  0  0  0  0  0  0  0  0  0  0  0
   -4.8765   15.3485   -2.7330 H   0  0  0  0  0  0  0  0  0  0  0  0
   -3.7199   12.3384   -3.1793 H   0  0  0  0  0  0  0  0  0  0  0  0
   -2.1702   11.9780   -4.0129 H   0  0  0  0  0  0  0  0  0  0  0  0
   -2.2175   12.1090   -2.2220 H   0  0  0  0  0  0  0  0  0  0  0  0
   -1.2564   14.1145   -3.2440 H   0  0  0  0  0  0  0  0  0  0  0  0
   -2.7547   14.3434   -4.2081 H   0  0  0  0  0  0  0  0  0  0  0  0
  1  3  1  0  0  0  0
  1  9  2  0  0  0  0
  2  9  1  0  0  0  0
  2 10  2  0  0  0  0
  3  4  2  0  0  0  0
  3  5  1  0  0  0  0
  4 10  1  0  0  0  0
  4 11  1  0  0  0  0
  5  6  1  0  0  0  0
  6 11  1  0  0  0  0
  7  8  1  0  0  0  0
  8 11  1  0  0  0  0
  1 12  1  0  0  0  0
  2 13  1  0  0  0  0
  5 14  1  0  0  0  0
  5 15  1  0  0  0  0
  6 16  1  0  0  0  0
  6 17  1  0  0  0  0
  7 18  1  0  0  0  0
  7 19  1  0  0  0  0
  7 20  1  0  0  0  0
  8 21  1  0  0  0  0
  8 22  1  0  0  0  0
M  END
> <HYBRID receptor title>
5S18(A) > WOY(A-201)

> <HYBRID receptor filename>
5s18.oedu

> <HYBRID Chemgauss4 score>
-6.343615

> <HYBRID receptor title>
5S18(A) > WOY(A-201)

> <HYBRID receptor filename>
5s18.oedu

> <Dock Type>
Hybrid

$$$$
MOL0156_3
  -OEChem-06022418243D

 22 23  0     1  0  0  0  0  0999 V2000
   -1.2473   14.7328   -1.0431 C   0  0  0  0  0  0  0  0  0  0  0  0
   -0.1923   14.5569    0.9532 C   0  0  0  0  0  0  0  0  0  0  0  0
   -2.4361   15.0906   -0.4271 C   0  0  0  0  0  0  0  0  0  0  0  0
   -2.4168   15.1261    0.9686 C   0  0  0  0  0  0  0  0  0  0  0  0
   -4.7004   15.9842   -0.4633 C   0  0  0  0  0  0  0  0  0  0  0  0
   -4.8674   15.4499    0.9650 C   0  0  1  0  0  0  0  0  0  0  0  0
   -5.5059   14.0849    0.9953 C   0  0  0  0  0  0  0  0  0  0  0  0
   -0.1042   14.4629   -0.3830 N   0  0  0  0  0  0  0  0  0  0  0  0
   -1.2865   14.8738    1.6713 N   0  0  0  0  0  0  0  0  0  0  0  0
   -3.5873   15.3502   -1.1471 N   0  0  0  0  0  0  0  0  0  0  0  0
   -3.5875   15.4230    1.6586 N   0  0  0  0  0  0  0  0  0  0  0  0
   -6.0314   13.8609    2.2912 O   0  0  0  0  0  0  0  0  0  0  0  0
   -1.1787   14.6425   -2.1233 H   0  0  0  0  0  0  0  0  0  0  0  0
    0.7128   14.3597    1.5142 H   0  0  0  0  0  0  0  0  0  0  0  0
   -5.6183   15.8172   -1.0477 H   0  0  0  0  0  0  0  0  0  0  0  0
   -4.5354   17.0706   -0.4430 H   0  0  0  0  0  0  0  0  0  0  0  0
   -5.5321   16.1544    1.5220 H   0  0  0  0  0  0  0  0  0  0  0  0
   -4.7617   13.3201    0.7718 H   0  0  0  0  0  0  0  0  0  0  0  0
   -6.3144   14.0349    0.2656 H   0  0  0  0  0  0  0  0  0  0  0  0
   -3.7526   14.8602   -2.0177 H   0  0  0  0  0  0  0  0  0  0  0  0
   -3.4951   15.8715    2.5715 H   0  0  0  0  0  0  0  0  0  0  0  0
   -6.4366   12.9770    2.2857 H   0  0  0  0  0  0  0  0  0  0  0  0
  1  3  1  0  0  0  0
  1  8  2  0  0  0  0
  2  8  1  0  0  0  0
  2  9  2  0  0  0  0
  3  4  2  0  0  0  0
  3 10  1  0  0  0  0
  4  9  1  0  0  0  0
  4 11  1  0  0  0  0
  5  6  1  0  0  0  0
  5 10  1  0  0  0  0
  6  7  1  0  0  0  0
  6 11  1  0  0  0  0
  7 12  1  0  0  0  0
  1 13  1  0  0  0  0
  2 14  1  0  0  0  0
  5 15  1  0  0  0  0
  5 16  1  0  0  0  0
  6 17  1  0  0  0  0
  7 18  1  0  0  0  0
  7 19  1  0  0  0  0
 10 20  1  0  0  0  0
 11 21  1  0  0  0  0
 12 22  1  0  0  0  0
M  END
> <HYBRID receptor title>
5S18(A) > WOY(A-201)

> <HYBRID receptor filename>
5s18.oedu

> <HYBRID Chemgauss4 score>
-6.319879

> <HYBRID receptor title>
5S18(A) > WOY(A-201)

> <HYBRID receptor filename>
5s18.oedu

> <Dock Type>
Hybrid

$$$$
MOL0106_1
  -OEChem-06022418243D

 18 19  0     0  0  0  0  0  0999 V2000
   -1.2874   14.8778   -0.8926 C   0  0  0  0  0  0  0  0  0  0  0  0
   -0.1826   14.5855   -0.1005 C   0  0  0  0  0  0  0  0  0  0  0  0
   -2.4672   15.2104   -0.2566 C   0  0  0  0  0  0  0  0  0  0  0  0
   -2.5287   15.2377    1.1334 C   0  0  0  0  0  0  0  0  0  0  0  0
   -0.3271   14.6378    1.2838 C   0  0  0  0  0  0  0  0  0  0  0  0
   -3.7977   15.5408   -0.8453 C   0  0  0  0  0  0  0  0  0  0  0  0
   -4.5966   15.9721    0.4024 C   0  0  0  0  0  0  0  0  0  0  0  0
   -1.4779   14.9561    1.9261 N   0  0  0  0  0  0  0  0  0  0  0  0
   -3.8153   15.5872    1.5639 N   0  0  0  0  0  0  0  0  0  0  0  0
    0.7591   14.3484    2.0693 O   0  0  0  0  0  0  0  0  0  0  0  0
   -1.2202   14.8426   -1.9742 H   0  0  0  0  0  0  0  0  0  0  0  0
    0.7659   14.3208   -0.5560 H   0  0  0  0  0  0  0  0  0  0  0  0
   -3.7287   16.3534   -1.5742 H   0  0  0  0  0  0  0  0  0  0  0  0
   -4.2405   14.6526   -1.3070 H   0  0  0  0  0  0  0  0  0  0  0  0
   -4.7373   17.0595    0.4016 H   0  0  0  0  0  0  0  0  0  0  0  0
   -5.5875   15.5067    0.4193 H   0  0  0  0  0  0  0  0  0  0  0  0
   -4.0791   15.7189    2.5279 H   0  0  0  0  0  0  0  0  0  0  0  0
    1.5186   14.1357    1.5100 H   0  0  0  0  0  0  0  0  0  0  0  0
  1  2  2  0  0  0  0
  1  3  1  0  0  0  0
  2  5  1  0  0  0  0
  3  4  2  0  0  0  0
  3  6  1  0  0  0  0
  4  8  1  0  0  0  0
  4  9  1  0  0  0  0
  5  8  2  0  0  0  0
  5 10  1  0  0  0  0
  6  7  1  0  0  0  0
  7  9  1  0  0  0  0
  1 11  1  0  0  0  0
  2 12  1  0  0  0  0
  6 13  1  0  0  0  0
  6 14  1  0  0  0  0
  7 15  1  0  0  0  0
  7 16  1  0  0  0  0
  9 17  1  0  0  0  0
 10 18  1  0  0  0  0
M  END
> <HYBRID receptor title>
5S18(A) > WOY(A-201)

> <HYBRID receptor filename>
5s18.oedu

> <HYBRID Chemgauss4 score>
-6.316336

> <HYBRID receptor title>
5S18(A) > WOY(A-201)

> <HYBRID receptor filename>
5s18.oedu

> <Dock Type>
Hybrid

$$$$
MOL0045_1
  -OEChem-06022418243D

 22 23  0     1  0  0  0  0  0999 V2000
   -2.8757   15.0732    1.2518 C   0  0  0  0  0  0  0  0  0  0  0  0
   -0.6711   14.8364    0.7732 C   0  0  0  0  0  0  0  0  0  0  0  0
   -3.2216   14.8290   -0.0670 C   0  0  0  0  0  0  0  0  0  0  0  0
   -2.1645   14.6150   -0.9477 C   0  0  0  0  0  0  0  0  0  0  0  0
   -4.6449   14.8529   -0.5332 C   0  0  0  0  0  0  0  0  0  0  0  0
   -4.8103   14.1894   -1.9003 C   0  0  0  0  0  0  0  0  0  0  0  0
   -2.4466   14.2985   -2.4057 C   0  0  2  0  0  0  0  0  0  0  0  0
   -1.4506   14.9877   -3.3424 C   0  0  0  0  0  0  0  0  0  0  0  0
   -1.6071   15.0825    1.7062 N   0  0  0  0  0  0  0  0  0  0  0  0
   -0.8750   14.5947   -0.5359 N   0  0  0  0  0  0  0  0  0  0  0  0
   -3.8016   14.6961   -2.8297 N   0  0  0  0  0  0  0  0  0  0  0  0
   -3.6321   15.2730    2.0042 H   0  0  0  0  0  0  0  0  0  0  0  0
    0.3585   14.8307    1.1096 H   0  0  0  0  0  0  0  0  0  0  0  0
   -5.2865   14.3389    0.1921 H   0  0  0  0  0  0  0  0  0  0  0  0
   -4.9725   15.8987   -0.5885 H   0  0  0  0  0  0  0  0  0  0  0  0
   -4.7350   13.0977   -1.8157 H   0  0  0  0  0  0  0  0  0  0  0  0
   -5.8100   14.4116   -2.2894 H   0  0  0  0  0  0  0  0  0  0  0  0
   -2.3442   13.2123   -2.5294 H   0  0  0  0  0  0  0  0  0  0  0  0
   -1.5354   16.0666   -3.2357 H   0  0  0  0  0  0  0  0  0  0  0  0
   -1.6652   14.7101   -4.3717 H   0  0  0  0  0  0  0  0  0  0  0  0
   -0.4386   14.6796   -3.0901 H   0  0  0  0  0  0  0  0  0  0  0  0
   -3.9831   14.3279   -3.7632 H   0  0  0  0  0  0  0  0  0  0  0  0
  1  3  1  0  0  0  0
  1  9  2  0  0  0  0
  2  9  1  0  0  0  0
  2 10  2  0  0  0  0
  3  4  2  0  0  0  0
  3  5  1  0  0  0  0
  4  7  1  0  0  0  0
  4 10  1  0  0  0  0
  5  6  1  0  0  0  0
  6 11  1  0  0  0  0
  7  8  1  0  0  0  0
  7 11  1  0  0  0  0
  1 12  1  0  0  0  0
  2 13  1  0  0  0  0
  5 14  1  0  0  0  0
  5 15  1  0  0  0  0
  6 16  1  0  0  0  0
  6 17  1  0  0  0  0
  7 18  1  0  0  0  0
  8 19  1  0  0  0  0
  8 20  1  0  0  0  0
  8 21  1  0  0  0  0
 11 22  1  0  0  0  0
M  END
> <HYBRID receptor title>
5S18(A) > WOY(A-201)

> <HYBRID receptor filename>
5s18.oedu

> <HYBRID Chemgauss4 score>
-6.309983

> <HYBRID receptor title>
5S18(A) > WOY(A-201)

> <HYBRID receptor filename>
5s18.oedu

> <Dock Type>
Hybrid

$$$$
MOL0129_1
  -OEChem-06022418243D

 17 18  0     0  0  0  0  0  0999 V2000
   -0.5266   14.6800   -0.8075 C   0  0  0  0  0  0  0  0  0  0  0  0
    0.2741   14.7610    1.3114 C   0  0  0  0  0  0  0  0  0  0  0  0
   -1.8150   14.8493   -0.3375 C   0  0  0  0  0  0  0  0  0  0  0  0
   -1.9947   14.9779    1.0305 C   0  0  0  0  0  0  0  0  0  0  0  0
   -4.2048   15.0521   -0.7644 C   0  0  0  0  0  0  0  0  0  0  0  0
   -4.4326   14.8867    0.7240 C   0  0  0  0  0  0  0  0  0  0  0  0
    0.5477   14.6257    0.0014 N   0  0  0  0  0  0  0  0  0  0  0  0
   -0.9385   14.9406    1.8753 N   0  0  0  0  0  0  0  0  0  0  0  0
   -2.9048   14.9364   -1.2083 N   0  0  0  0  0  0  0  0  0  0  0  0
   -3.2698   15.1933    1.5279 N   0  0  0  0  0  0  0  0  0  0  0  0
   -5.1563   15.2015   -1.5331 O   0  0  0  0  0  0  0  0  0  0  0  0
   -0.3115   14.5833   -1.8665 H   0  0  0  0  0  0  0  0  0  0  0  0
    1.1189   14.7242    1.9884 H   0  0  0  0  0  0  0  0  0  0  0  0
   -5.2573   15.5405    1.0255 H   0  0  0  0  0  0  0  0  0  0  0  0
   -4.7344   13.8484    0.9009 H   0  0  0  0  0  0  0  0  0  0  0  0
   -2.7239   14.9406   -2.2077 H   0  0  0  0  0  0  0  0  0  0  0  0
   -3.3741   15.2876    2.5310 H   0  0  0  0  0  0  0  0  0  0  0  0
  1  3  1  0  0  0  0
  1  7  2  0  0  0  0
  2  7  1  0  0  0  0
  2  8  2  0  0  0  0
  3  4  2  0  0  0  0
  3  9  1  0  0  0  0
  4  8  1  0  0  0  0
  4 10  1  0  0  0  0
  5  6  1  0  0  0  0
  5  9  1  0  0  0  0
  5 11  2  0  0  0  0
  6 10  1  0  0  0  0
  1 12  1  0  0  0  0
  2 13  1  0  0  0  0
  6 14  1  0  0  0  0
  6 15  1  0  0  0  0
  9 16  1  0  0  0  0
 10 17  1  0  0  0  0
M  END
> <HYBRID receptor title>
5S18(A) > WOY(A-201)

> <HYBRID receptor filename>
5s18.oedu

> <HYBRID Chemgauss4 score>
-6.309734

> <HYBRID receptor title>
5S18(A) > WOY(A-201)

> <HYBRID receptor filename>
5s18.oedu

> <Dock Type>
Hybrid

$$$$
MOL0056_1
  -OEChem-06022418243D

 24 25  0     1  0  0  0  0  0999 V2000
   -0.8271   14.4936   -0.9224 C   0  0  0  0  0  0  0  0  0  0  0  0
    0.0279   14.8604    1.1428 C   0  0  0  0  0  0  0  0  0  0  0  0
   -2.1175   14.7233   -0.4716 C   0  0  0  0  0  0  0  0  0  0  0  0
   -2.2425   15.0704    0.8759 C   0  0  0  0  0  0  0  0  0  0  0  0
   -4.5886   15.6405    0.4652 C   0  0  0  0  0  0  0  0  0  0  0  0
   -4.5451   14.6813   -0.7305 C   0  0  1  0  0  0  0  0  0  0  0  0
   -6.9545   15.0864   -1.2588 C   0  0  0  0  0  0  0  0  0  0  0  0
   -5.5591   15.0897   -1.7936 C   0  0  0  0  0  0  0  0  0  0  0  0
    0.2689   14.5502   -0.1408 N   0  0  0  0  0  0  0  0  0  0  0  0
   -1.1692   15.1242    1.7004 N   0  0  0  0  0  0  0  0  0  0  0  0
   -3.2118   14.6616   -1.3163 N   0  0  0  0  0  0  0  0  0  0  0  0
   -3.5042   15.3611    1.3872 N   0  0  0  0  0  0  0  0  0  0  0  0
   -0.6307   14.2412   -1.9603 H   0  0  0  0  0  0  0  0  0  0  0  0
    0.8872   14.9063    1.8004 H   0  0  0  0  0  0  0  0  0  0  0  0
   -4.5138   16.6824    0.1289 H   0  0  0  0  0  0  0  0  0  0  0  0
   -5.5435   15.5415    0.9935 H   0  0  0  0  0  0  0  0  0  0  0  0
   -4.7902   13.6680   -0.3864 H   0  0  0  0  0  0  0  0  0  0  0  0
   -7.2060   14.0853   -0.8890 H   0  0  0  0  0  0  0  0  0  0  0  0
   -7.6733   15.3493   -2.0422 H   0  0  0  0  0  0  0  0  0  0  0  0
   -7.0547   15.7910   -0.4264 H   0  0  0  0  0  0  0  0  0  0  0  0
   -5.3114   16.0896   -2.1616 H   0  0  0  0  0  0  0  0  0  0  0  0
   -5.4908   14.3997   -2.6397 H   0  0  0  0  0  0  0  0  0  0  0  0
   -3.0850   14.3050   -2.2563 H   0  0  0  0  0  0  0  0  0  0  0  0
   -3.5799   15.6331    2.3593 H   0  0  0  0  0  0  0  0  0  0  0  0
  1  3  1  0  0  0  0
  1  9  2  0  0  0  0
  2  9  1  0  0  0  0
  2 10  2  0  0  0  0
  3  4  2  0  0  0  0
  3 11  1  0  0  0  0
  4 10  1  0  0  0  0
  4 12  1  0  0  0  0
  5  6  1  0  0  0  0
  5 12  1  0  0  0  0
  6  8  1  0  0  0  0
  6 11  1  0  0  0  0
  7  8  1  0  0  0  0
  1 13  1  0  0  0  0
  2 14  1  0  0  0  0
  5 15  1  0  0  0  0
  5 16  1  0  0  0  0
  6 17  1  0  0  0  0
  7 18  1  0  0  0  0
  7 19  1  0  0  0  0
  7 20  1  0  0  0  0
  8 21  1  0  0  0  0
  8 22  1  0  0  0  0
 11 23  1  0  0  0  0
 12 24  1  0  0  0  0
M  END
> <HYBRID receptor title>
5S18(A) > WOY(A-201)

> <HYBRID receptor filename>
5s18.oedu

> <HYBRID Chemgauss4 score>
-6.302343

> <HYBRID receptor title>
5S18(A) > WOY(A-201)

> <HYBRID receptor filename>
5s18.oedu

> <Dock Type>
Hybrid

$$$$
MOL0041_1
  -OEChem-06022418243D

 18 19  0     0  0  0  0  0  0999 V2000
   -0.6543   14.7799   -0.6494 C   0  0  0  0  0  0  0  0  0  0  0  0
    0.0827   14.8800    1.4904 C   0  0  0  0  0  0  0  0  0  0  0  0
   -1.9751   14.8650   -0.2391 C   0  0  0  0  0  0  0  0  0  0  0  0
   -2.1855   14.9255    1.1413 C   0  0  0  0  0  0  0  0  0  0  0  0
   -4.3525   15.1864   -0.6549 C   0  0  0  0  0  0  0  0  0  0  0  0
   -4.5837   14.6174    0.7418 C   0  0  0  0  0  0  0  0  0  0  0  0
    0.4003   14.7879    0.1892 N   0  0  0  0  0  0  0  0  0  0  0  0
   -1.1540   14.9507    2.0187 N   0  0  0  0  0  0  0  0  0  0  0  0
   -3.0266   14.8483   -1.1372 N   0  0  0  0  0  0  0  0  0  0  0  0
   -3.4898   14.9672    1.6273 N   0  0  0  0  0  0  0  0  0  0  0  0
   -0.3957   14.7077   -1.7018 H   0  0  0  0  0  0  0  0  0  0  0  0
    0.9084   14.8969    2.1911 H   0  0  0  0  0  0  0  0  0  0  0  0
   -5.1036   14.7946   -1.3489 H   0  0  0  0  0  0  0  0  0  0  0  0
   -4.4639   16.2776   -0.6384 H   0  0  0  0  0  0  0  0  0  0  0  0
   -5.5227   15.0028    1.1527 H   0  0  0  0  0  0  0  0  0  0  0  0
   -4.6750   13.5254    0.6924 H   0  0  0  0  0  0  0  0  0  0  0  0
   -2.8346   14.8783   -2.1310 H   0  0  0  0  0  0  0  0  0  0  0  0
   -3.6316   14.9885    2.6293 H   0  0  0  0  0  0  0  0  0  0  0  0
  1  3  1  0  0  0  0
  1  7  2  0  0  0  0
  2  7  1  0  0  0  0
  2  8  2  0  0  0  0
  3  4  2  0  0  0  0
  3  9  1  0  0  0  0
  4  8  1  0  0  0  0
  4 10  1  0  0  0  0
  5  6  1  0  0  0  0
  5  9  1  0  0  0  0
  6 10  1  0  0  0  0
  1 11  1  0  0  0  0
  2 12  1  0  0  0  0
  5 13  1  0  0  0  0
  5 14  1  0  0  0  0
  6 15  1  0  0  0  0
  6 16  1  0  0  0  0
  9 17  1  0  0  0  0
 10 18  1  0  0  0  0
M  END
> <HYBRID receptor title>
5S18(A) > WOY(A-201)

> <HYBRID receptor filename>
5s18.oedu

> <HYBRID Chemgauss4 score>
-6.290821

> <HYBRID receptor title>
5S18(A) > WOY(A-201)

> <HYBRID receptor filename>
5s18.oedu

> <Dock Type>
Hybrid

$$$$
MOL0112_26
  -OEChem-06022418243D

 31 33  0     0  0  0  0  0  0999 V2000
    1.2301   13.2793   -3.9890 C   0  0  0  0  0  0  0  0  0  0  0  0
    1.5417   14.6387   -4.0111 C   0  0  0  0  0  0  0  0  0  0  0  0
    0.8885   12.6615   -2.7859 C   0  0  0  0  0  0  0  0  0  0  0  0
    1.5119   15.3803   -2.8302 C   0  0  0  0  0  0  0  0  0  0  0  0
    0.8587   13.4032   -1.6049 C   0  0  0  0  0  0  0  0  0  0  0  0
   -2.8269   14.7922   -1.3304 C   0  0  0  0  0  0  0  0  0  0  0  0
   -3.7685   14.7014   -0.3396 C   0  0  0  0  0  0  0  0  0  0  0  0
    1.1704   14.7626   -1.6270 C   0  0  0  0  0  0  0  0  0  0  0  0
   -3.3316   14.7235    0.9751 C   0  0  0  0  0  0  0  0  0  0  0  0
   -1.1942   14.9266    0.2637 C   0  0  0  0  0  0  0  0  0  0  0  0
   -5.2436   14.5324   -0.4047 C   0  0  0  0  0  0  0  0  0  0  0  0
   -5.6380   14.7259    1.0756 C   0  0  0  0  0  0  0  0  0  0  0  0
    1.1383   15.5603   -0.3555 C   0  0  0  0  0  0  0  0  0  0  0  0
   -1.5126   14.9118   -1.0526 N   0  0  0  0  0  0  0  0  0  0  0  0
   -2.0373   14.8354    1.3153 N   0  0  0  0  0  0  0  0  0  0  0  0
   -4.4175   14.6074    1.8555 N   0  0  0  0  0  0  0  0  0  0  0  0
    0.1790   15.0494    0.5722 N   0  0  0  0  0  0  0  0  0  0  0  0
    1.2521   12.7022   -4.9088 H   0  0  0  0  0  0  0  0  0  0  0  0
    1.8067   15.1201   -4.9480 H   0  0  0  0  0  0  0  0  0  0  0  0
    0.6448   11.6034   -2.7685 H   0  0  0  0  0  0  0  0  0  0  0  0
    1.7564   16.4390   -2.8569 H   0  0  0  0  0  0  0  0  0  0  0  0
    0.5916   12.9134   -0.6722 H   0  0  0  0  0  0  0  0  0  0  0  0
   -3.0898   14.7701   -2.3808 H   0  0  0  0  0  0  0  0  0  0  0  0
   -5.7159   15.2834   -1.0440 H   0  0  0  0  0  0  0  0  0  0  0  0
   -5.4970   13.5249   -0.7495 H   0  0  0  0  0  0  0  0  0  0  0  0
   -6.0677   15.7241    1.2234 H   0  0  0  0  0  0  0  0  0  0  0  0
   -6.3846   13.9891    1.3886 H   0  0  0  0  0  0  0  0  0  0  0  0
    2.1189   15.5484    0.1326 H   0  0  0  0  0  0  0  0  0  0  0  0
    0.8868   16.6073   -0.5546 H   0  0  0  0  0  0  0  0  0  0  0  0
   -4.3446   14.6659    2.8593 H   0  0  0  0  0  0  0  0  0  0  0  0
    0.4648   14.7574    1.4865 H   0  0  0  0  0  0  0  0  0  0  0  0
  1  2  1  0  0  0  0
  1  3  2  0  0  0  0
  2  4  2  0  0  0  0
  3  5  1  0  0  0  0
  4  8  1  0  0  0  0
  5  8  2  0  0  0  0
  6  7  1  0  0  0  0
  6 14  2  0  0  0  0
  7  9  2  0  0  0  0
  7 11  1  0  0  0  0
  8 13  1  0  0  0  0
  9 15  1  0  0  0  0
  9 16  1  0  0  0  0
 10 14  1  0  0  0  0
 10 15  2  0  0  0  0
 10 17  1  0  0  0  0
 11 12  1  0  0  0  0
 12 16  1  0  0  0  0
 13 17  1  0  0  0  0
  1 18  1  0  0  0  0
  2 19  1  0  0  0  0
  3 20  1  0  0  0  0
  4 21  1  0  0  0  0
  5 22  1  0  0  0  0
  6 23  1  0  0  0  0
 11 24  1  0  0  0  0
 11 25  1  0  0  0  0
 12 26  1  0  0  0  0
 12 27  1  0  0  0  0
 13 28  1  0  0  0  0
 13 29  1  0  0  0  0
 16 30  1  0  0  0  0
 17 31  1  0  0  0  0
M  END
> <HYBRID receptor title>
5S18(A) > WOY(A-201)

> <HYBRID receptor filename>
5s18.oedu

> <HYBRID Chemgauss4 score>
-6.285064

> <HYBRID receptor title>
5S18(A) > WOY(A-201)

> <HYBRID receptor filename>
5s18.oedu

> <Dock Type>
Hybrid

$$$$
MOL0147_2
  -OEChem-06022418243D

 20 21  0     0  0  0  0  0  0999 V2000
   -2.5467   14.4214   -1.3961 C   0  0  0  0  0  0  0  0  0  0  0  0
   -3.6322   14.6100   -0.5821 C   0  0  0  0  0  0  0  0  0  0  0  0
   -3.3999   14.9195    0.7483 C   0  0  0  0  0  0  0  0  0  0  0  0
   -1.1698   14.8493    0.3775 C   0  0  0  0  0  0  0  0  0  0  0  0
    0.1810   14.9795    0.8890 C   0  0  0  0  0  0  0  0  0  0  0  0
   -5.0893   14.4999   -0.8535 C   0  0  0  0  0  0  0  0  0  0  0  0
   -5.6862   15.0538    0.4584 C   0  0  0  0  0  0  0  0  0  0  0  0
   -1.2846   14.5409   -0.9364 N   0  0  0  0  0  0  0  0  0  0  0  0
   -2.1675   15.0473    1.2665 N   0  0  0  0  0  0  0  0  0  0  0  0
   -4.6128   15.0645    1.4379 N   0  0  0  0  0  0  0  0  0  0  0  0
    1.2363   14.7797    0.0007 N   0  0  0  0  0  0  0  0  0  0  0  0
    0.4026   15.2443    2.0858 O   0  0  0  0  0  0  0  0  0  0  0  0
   -2.6470   14.1646   -2.4436 H   0  0  0  0  0  0  0  0  0  0  0  0
   -5.3934   15.1012   -1.7151 H   0  0  0  0  0  0  0  0  0  0  0  0
   -5.3715   13.4525   -1.0017 H   0  0  0  0  0  0  0  0  0  0  0  0
   -6.0465   16.0782    0.3047 H   0  0  0  0  0  0  0  0  0  0  0  0
   -6.5316   14.4473    0.7987 H   0  0  0  0  0  0  0  0  0  0  0  0
   -4.6889   15.3539    2.4006 H   0  0  0  0  0  0  0  0  0  0  0  0
    1.0325   14.5517   -0.9664 H   0  0  0  0  0  0  0  0  0  0  0  0
    2.2036   14.8567    0.2980 H   0  0  0  0  0  0  0  0  0  0  0  0
  1  2  1  0  0  0  0
  1  8  2  0  0  0  0
  2  3  2  0  0  0  0
  2  6  1  0  0  0  0
  3  9  1  0  0  0  0
  3 10  1  0  0  0  0
  4  5  1  0  0  0  0
  4  8  1  0  0  0  0
  4  9  2  0  0  0  0
  5 11  1  0  0  0  0
  5 12  2  0  0  0  0
  6  7  1  0  0  0  0
  7 10  1  0  0  0  0
  1 13  1  0  0  0  0
  6 14  1  0  0  0  0
  6 15  1  0  0  0  0
  7 16  1  0  0  0  0
  7 17  1  0  0  0  0
 10 18  1  0  0  0  0
 11 19  1  0  0  0  0
 11 20  1  0  0  0  0
M  END
> <HYBRID receptor title>
5S18(A) > WOY(A-201)

> <HYBRID receptor filename>
5s18.oedu

> <HYBRID Chemgauss4 score>
-6.268239

> <HYBRID receptor title>
5S18(A) > WOY(A-201)

> <HYBRID receptor filename>
5s18.oedu

> <Dock Type>
Hybrid

$$$$
MOL0028_1
  -OEChem-06022418243D

 21 22  0     0  0  0  0  0  0999 V2000
   -2.7648   15.0800    1.0861 C   0  0  0  0  0  0  0  0  0  0  0  0
   -2.9971   14.9704   -0.2742 C   0  0  0  0  0  0  0  0  0  0  0  0
   -1.8694   14.7784   -1.0656 C   0  0  0  0  0  0  0  0  0  0  0  0
   -0.5250   14.8599    0.7764 C   0  0  0  0  0  0  0  0  0  0  0  0
   -4.3800   14.9816   -0.8552 C   0  0  0  0  0  0  0  0  0  0  0  0
   -2.0158   14.6757   -2.5609 C   0  0  0  0  0  0  0  0  0  0  0  0
   -3.4485   14.3399   -2.9827 C   0  0  0  0  0  0  0  0  0  0  0  0
   -1.5382   15.0330    1.6446 N   0  0  0  0  0  0  0  0  0  0  0  0
   -0.6159   14.7302   -0.5608 N   0  0  0  0  0  0  0  0  0  0  0  0
   -4.4107   15.2146   -2.3060 N   0  0  0  0  0  0  0  0  0  0  0  0
    0.7743   14.8076    1.3270 N   0  0  0  0  0  0  0  0  0  0  0  0
   -3.5818   15.2142    1.7881 H   0  0  0  0  0  0  0  0  0  0  0  0
   -4.8727   14.0213   -0.6552 H   0  0  0  0  0  0  0  0  0  0  0  0
   -4.9726   15.7581   -0.3527 H   0  0  0  0  0  0  0  0  0  0  0  0
   -1.7121   15.6200   -3.0255 H   0  0  0  0  0  0  0  0  0  0  0  0
   -1.3327   13.8948   -2.9155 H   0  0  0  0  0  0  0  0  0  0  0  0
   -3.5651   14.4270   -4.0729 H   0  0  0  0  0  0  0  0  0  0  0  0
   -3.6694   13.2944   -2.7306 H   0  0  0  0  0  0  0  0  0  0  0  0
   -5.3464   15.0169   -2.6568 H   0  0  0  0  0  0  0  0  0  0  0  0
    0.8920   14.9460    2.3095 H   0  0  0  0  0  0  0  0  0  0  0  0
    1.5591   14.7276    0.7138 H   0  0  0  0  0  0  0  0  0  0  0  0
  1  2  1  0  0  0  0
  1  8  2  0  0  0  0
  2  3  2  0  0  0  0
  2  5  1  0  0  0  0
  3  6  1  0  0  0  0
  3  9  1  0  0  0  0
  4  8  1  0  0  0  0
  4  9  2  0  0  0  0
  4 11  1  0  0  0  0
  5 10  1  0  0  0  0
  6  7  1  0  0  0  0
  7 10  1  0  0  0  0
  1 12  1  0  0  0  0
  5 13  1  0  0  0  0
  5 14  1  0  0  0  0
  6 15  1  0  0  0  0
  6 16  1  0  0  0  0
  7 17  1  0  0  0  0
  7 18  1  0  0  0  0
 10 19  1  0  0  0  0
 11 20  1  0  0  0  0
 11 21  1  0  0  0  0
M  END
> <HYBRID receptor title>
5S18(A) > WOY(A-201)

> <HYBRID receptor filename>
5s18.oedu

> <HYBRID Chemgauss4 score>
-6.254501

> <HYBRID receptor title>
5S18(A) > WOY(A-201)

> <HYBRID receptor filename>
5s18.oedu

> <Dock Type>
Hybrid

$$$$
MOL0180_4
  -OEChem-06022418243D

 31 33  0     1  0  0  0  0  0999 V2000
   -1.0911   14.7849   -0.8049 C   0  0  0  0  0  0  0  0  0  0  0  0
    0.0682   15.1569    1.1295 C   0  0  0  0  0  0  0  0  0  0  0  0
   -2.2643   14.8089   -0.0953 C   0  0  0  0  0  0  0  0  0  0  0  0
   -2.1839   15.0056    1.2761 C   0  0  0  0  0  0  0  0  0  0  0  0
   -5.9241   13.7353   -3.3563 C   0  0  0  0  0  0  0  0  0  0  0  0
   -4.4235   13.4651   -3.3267 C   0  0  0  0  0  0  0  0  0  0  0  0
   -6.3857   14.3824   -2.0549 C   0  0  0  0  0  0  0  0  0  0  0  0
   -3.6402   14.7222   -2.9394 C   0  0  0  0  0  0  0  0  0  0  0  0
   -5.5348   15.6078   -1.7111 C   0  0  0  0  0  0  0  0  0  0  0  0
   -4.4327   15.0310    0.7712 C   0  0  0  0  0  0  0  0  0  0  0  0
   -3.6809   14.5881   -0.5109 C   0  0  1  0  0  0  0  0  0  0  0  0
    0.1060   14.9658   -0.2104 N   0  0  0  0  0  0  0  0  0  0  0  0
   -1.0222   15.1849    1.9260 N   0  0  0  0  0  0  0  0  0  0  0  0
   -3.4636   14.9796    1.8541 N   0  0  0  0  0  0  0  0  0  0  0  0
   -4.0892   15.3489   -1.6892 N   0  0  0  0  0  0  0  0  0  0  0  0
   -1.0655   14.6145   -1.8744 H   0  0  0  0  0  0  0  0  0  0  0  0
    1.0240   15.3026    1.6188 H   0  0  0  0  0  0  0  0  0  0  0  0
   -6.1594   14.4001   -4.1988 H   0  0  0  0  0  0  0  0  0  0  0  0
   -6.4714   12.7995   -3.5259 H   0  0  0  0  0  0  0  0  0  0  0  0
   -4.2097   12.6639   -2.6083 H   0  0  0  0  0  0  0  0  0  0  0  0
   -4.0922   13.1111   -4.3091 H   0  0  0  0  0  0  0  0  0  0  0  0
   -7.4378   14.6753   -2.1406 H   0  0  0  0  0  0  0  0  0  0  0  0
   -6.3218   13.6512   -1.2395 H   0  0  0  0  0  0  0  0  0  0  0  0
   -2.5710   14.4402   -2.8480 H   0  0  0  0  0  0  0  0  0  0  0  0
   -3.6840   15.4515   -3.7771 H   0  0  0  0  0  0  0  0  0  0  0  0
   -5.7719   16.4275   -2.4235 H   0  0  0  0  0  0  0  0  0  0  0  0
   -5.8592   15.9771   -0.7165 H   0  0  0  0  0  0  0  0  0  0  0  0
   -4.8062   16.0597    0.6853 H   0  0  0  0  0  0  0  0  0  0  0  0
   -5.2923   14.3830    0.9726 H   0  0  0  0  0  0  0  0  0  0  0  0
   -3.8342   13.5161   -0.6834 H   0  0  0  0  0  0  0  0  0  0  0  0
   -3.6476   15.1819    2.8247 H   0  0  0  0  0  0  0  0  0  0  0  0
  1  3  1  0  0  0  0
  1 12  2  0  0  0  0
  2 12  1  0  0  0  0
  2 13  2  0  0  0  0
  3  4  2  0  0  0  0
  3 11  1  0  0  0  0
  4 13  1  0  0  0  0
  4 14  1  0  0  0  0
  5  6  1  0  0  0  0
  5  7  1  0  0  0  0
  6  8  1  0  0  0  0
  7  9  1  0  0  0  0
  8 15  1  0  0  0  0
  9 15  1  0  0  0  0
 10 11  1  0  0  0  0
 10 14  1  0  0  0  0
 11 15  1  0  0  0  0
  1 16  1  0  0  0  0
  2 17  1  0  0  0  0
  5 18  1  0  0  0  0
  5 19  1  0  0  0  0
  6 20  1  0  0  0  0
  6 21  1  0  0  0  0
  7 22  1  0  0  0  0
  7 23  1  0  0  0  0
  8 24  1  0  0  0  0
  8 25  1  0  0  0  0
  9 26  1  0  0  0  0
  9 27  1  0  0  0  0
 10 28  1  0  0  0  0
 10 29  1  0  0  0  0
 11 30  1  0  0  0  0
 14 31  1  0  0  0  0
M  END
> <HYBRID receptor title>
5S18(A) > WOY(A-201)

> <HYBRID receptor filename>
5s18.oedu

> <HYBRID Chemgauss4 score>
-6.225197

> <HYBRID receptor title>
5S18(A) > WOY(A-201)

> <HYBRID receptor filename>
5s18.oedu

> <Dock Type>
Hybrid

$$$$
MOL0101_1
  -OEChem-06022418243D

 22 23  0     0  0  0  0  0  0999 V2000
   -1.4569   14.4362   -0.9881 C   0  0  0  0  0  0  0  0  0  0  0  0
   -0.1342   14.8408    0.8296 C   0  0  0  0  0  0  0  0  0  0  0  0
   -2.5515   14.8345   -0.2659 C   0  0  0  0  0  0  0  0  0  0  0  0
   -2.3524   15.2364    1.0424 C   0  0  0  0  0  0  0  0  0  0  0  0
   -3.9884   14.9188   -0.6482 C   0  0  0  0  0  0  0  0  0  0  0  0
   -4.6457   15.4477    0.6669 C   0  0  0  0  0  0  0  0  0  0  0  0
   -5.6598   14.4423    1.2195 C   0  0  0  0  0  0  0  0  0  0  0  0
   -5.3161   16.8056    0.4410 C   0  0  0  0  0  0  0  0  0  0  0  0
   -0.2174   14.4292   -0.4573 N   0  0  0  0  0  0  0  0  0  0  0  0
   -1.1433   15.2518    1.6276 N   0  0  0  0  0  0  0  0  0  0  0  0
   -3.5621   15.6093    1.6366 N   0  0  0  0  0  0  0  0  0  0  0  0
   -1.5331   14.1082   -2.0177 H   0  0  0  0  0  0  0  0  0  0  0  0
    0.8561   14.8400    1.2692 H   0  0  0  0  0  0  0  0  0  0  0  0
   -4.1157   15.6143   -1.4842 H   0  0  0  0  0  0  0  0  0  0  0  0
   -4.3623   13.9290   -0.9299 H   0  0  0  0  0  0  0  0  0  0  0  0
   -6.1016   14.8338    2.1328 H   0  0  0  0  0  0  0  0  0  0  0  0
   -5.1600   13.5012    1.4364 H   0  0  0  0  0  0  0  0  0  0  0  0
   -6.4433   14.2727    0.4847 H   0  0  0  0  0  0  0  0  0  0  0  0
   -5.7647   17.1505    1.3696 H   0  0  0  0  0  0  0  0  0  0  0  0
   -6.0890   16.7095   -0.3179 H   0  0  0  0  0  0  0  0  0  0  0  0
   -4.5742   17.5285    0.1096 H   0  0  0  0  0  0  0  0  0  0  0  0
   -3.6592   15.9355    2.5857 H   0  0  0  0  0  0  0  0  0  0  0  0
  1  3  1  0  0  0  0
  1  9  2  0  0  0  0
  2  9  1  0  0  0  0
  2 10  2  0  0  0  0
  3  4  2  0  0  0  0
  3  5  1  0  0  0  0
  4 10  1  0  0  0  0
  4 11  1  0  0  0  0
  5  6  1  0  0  0  0
  6  7  1  0  0  0  0
  6  8  1  0  0  0  0
  6 11  1  0  0  0  0
  1 12  1  0  0  0  0
  2 13  1  0  0  0  0
  5 14  1  0  0  0  0
  5 15  1  0  0  0  0
  7 16  1  0  0  0  0
  7 17  1  0  0  0  0
  7 18  1  0  0  0  0
  8 19  1  0  0  0  0
  8 20  1  0  0  0  0
  8 21  1  0  0  0  0
 11 22  1  0  0  0  0
M  END
> <HYBRID receptor title>
5S18(A) > WOY(A-201)

> <HYBRID receptor filename>
5s18.oedu

> <HYBRID Chemgauss4 score>
-6.220365

> <HYBRID receptor title>
5S18(A) > WOY(A-201)

> <HYBRID receptor filename>
5s18.oedu

> <Dock Type>
Hybrid

$$$$
MOL0026_1
  -OEChem-06022418243D

 18 19  0     0  0  0  0  0  0999 V2000
   -0.4921   14.8680    0.8777 C   0  0  0  0  0  0  0  0  0  0  0  0
   -2.9279   14.9351   -0.1729 C   0  0  0  0  0  0  0  0  0  0  0  0
   -1.7972   14.8533   -0.9695 C   0  0  0  0  0  0  0  0  0  0  0  0
   -2.7539   14.9886    1.1848 C   0  0  0  0  0  0  0  0  0  0  0  0
   -4.1584   14.9934   -1.0044 C   0  0  0  0  0  0  0  0  0  0  0  0
   -3.5959   14.6646   -2.4043 C   0  0  0  0  0  0  0  0  0  0  0  0
   -0.5507   14.8181   -0.4710 N   0  0  0  0  0  0  0  0  0  0  0  0
   -1.5282   14.9520    1.7460 N   0  0  0  0  0  0  0  0  0  0  0  0
   -2.1533   14.8215   -2.3259 N   0  0  0  0  0  0  0  0  0  0  0  0
   -3.8922   15.0893    2.0148 N   0  0  0  0  0  0  0  0  0  0  0  0
    0.4980   14.8378    1.3171 H   0  0  0  0  0  0  0  0  0  0  0  0
   -4.9032   14.2545   -0.6949 H   0  0  0  0  0  0  0  0  0  0  0  0
   -4.5881   16.0000   -0.9808 H   0  0  0  0  0  0  0  0  0  0  0  0
   -3.8337   13.6280   -2.6714 H   0  0  0  0  0  0  0  0  0  0  0  0
   -4.0269   15.3173   -3.1704 H   0  0  0  0  0  0  0  0  0  0  0  0
   -1.4998   14.6967   -3.0832 H   0  0  0  0  0  0  0  0  0  0  0  0
   -4.7950   15.1668    1.5941 H   0  0  0  0  0  0  0  0  0  0  0  0
   -3.7672   15.1761    3.0021 H   0  0  0  0  0  0  0  0  0  0  0  0
  1  7  1  0  0  0  0
  1  8  2  0  0  0  0
  2  3  1  0  0  0  0
  2  4  2  0  0  0  0
  2  5  1  0  0  0  0
  3  7  2  0  0  0  0
  3  9  1  0  0  0  0
  4  8  1  0  0  0  0
  4 10  1  0  0  0  0
  5  6  1  0  0  0  0
  6  9  1  0  0  0  0
  1 11  1  0  0  0  0
  5 12  1  0  0  0  0
  5 13  1  0  0  0  0
  6 14  1  0  0  0  0
  6 15  1  0  0  0  0
  9 16  1  0  0  0  0
 10 17  1  0  0  0  0
 10 18  1  0  0  0  0
M  END
> <HYBRID receptor title>
5S18(A) > WOY(A-201)

> <HYBRID receptor filename>
5s18.oedu

> <HYBRID Chemgauss4 score>
-6.211366

> <HYBRID receptor title>
5S18(A) > WOY(A-201)

> <HYBRID receptor filename>
5s18.oedu

> <Dock Type>
Hybrid

$$$$
MOL0177_1
  -OEChem-06022418243D

 26 28  0     1  0  0  0  0  0999 V2000
   -1.8330   14.6619    1.0165 C   0  0  0  0  0  0  0  0  0  0  0  0
    0.4404   14.7762    1.2107 C   0  0  0  0  0  0  0  0  0  0  0  0
   -1.7011   14.5884   -0.3457 C   0  0  0  0  0  0  0  0  0  0  0  0
   -0.4231   14.6186   -0.8753 C   0  0  0  0  0  0  0  0  0  0  0  0
   -2.7281   14.4961   -1.4186 C   0  0  0  0  0  0  0  0  0  0  0  0
    0.2605   12.3954   -4.4835 C   0  0  0  0  0  0  0  0  0  0  0  0
   -0.7975   11.5958   -5.1914 C   0  0  0  0  0  0  0  0  0  0  0  0
   -1.1358   12.9393   -4.6073 C   0  0  0  0  0  0  0  0  0  0  0  0
   -1.8505   14.3816   -2.6948 C   0  0  2  0  0  0  0  0  0  0  0  0
   -2.0246   13.0369   -3.3914 C   0  0  0  0  0  0  0  0  0  0  0  0
   -0.7626   14.7560    1.8313 N   0  0  0  0  0  0  0  0  0  0  0  0
    0.6817   14.7131   -0.1169 N   0  0  0  0  0  0  0  0  0  0  0  0
   -0.4641   14.5368   -2.2713 N   0  0  0  0  0  0  0  0  0  0  0  0
   -2.8001   14.6493    1.5044 H   0  0  0  0  0  0  0  0  0  0  0  0
    1.3093   14.8520    1.8535 H   0  0  0  0  0  0  0  0  0  0  0  0
   -3.3767   13.6270   -1.2730 H   0  0  0  0  0  0  0  0  0  0  0  0
   -3.3278   15.4118   -1.4432 H   0  0  0  0  0  0  0  0  0  0  0  0
    0.5958   12.0420   -3.5163 H   0  0  0  0  0  0  0  0  0  0  0  0
    1.0347   12.8529   -5.0871 H   0  0  0  0  0  0  0  0  0  0  0  0
   -0.7329   11.5173   -6.2698 H   0  0  0  0  0  0  0  0  0  0  0  0
   -1.1706   10.7066   -4.6984 H   0  0  0  0  0  0  0  0  0  0  0  0
   -1.2958   13.7609   -5.2951 H   0  0  0  0  0  0  0  0  0  0  0  0
   -2.1130   15.1822   -3.3964 H   0  0  0  0  0  0  0  0  0  0  0  0
   -3.0702   12.9392   -3.6710 H   0  0  0  0  0  0  0  0  0  0  0  0
   -1.7825   12.2566   -2.6749 H   0  0  0  0  0  0  0  0  0  0  0  0
    0.3461   14.5214   -2.8709 H   0  0  0  0  0  0  0  0  0  0  0  0
  1  3  1  0  0  0  0
  1 11  2  0  0  0  0
  2 11  1  0  0  0  0
  2 12  2  0  0  0  0
  3  4  2  0  0  0  0
  3  5  1  0  0  0  0
  4 12  1  0  0  0  0
  4 13  1  0  0  0  0
  5  9  1  0  0  0  0
  6  7  1  0  0  0  0
  6  8  1  0  0  0  0
  7  8  1  0  0  0  0
  8 10  1  0  0  0  0
  9 10  1  0  0  0  0
  9 13  1  0  0  0  0
  1 14  1  0  0  0  0
  2 15  1  0  0  0  0
  5 16  1  0  0  0  0
  5 17  1  0  0  0  0
  6 18  1  0  0  0  0
  6 19  1  0  0  0  0
  7 20  1  0  0  0  0
  7 21  1  0  0  0  0
  8 22  1  0  0  0  0
  9 23  1  0  0  0  0
 10 24  1  0  0  0  0
 10 25  1  0  0  0  0
 13 26  1  0  0  0  0
M  END
> <HYBRID receptor title>
5S18(A) > WOY(A-201)

> <HYBRID receptor filename>
5s18.oedu

> <HYBRID Chemgauss4 score>
-6.208925

> <HYBRID receptor title>
5S18(A) > WOY(A-201)

> <HYBRID receptor filename>
5s18.oedu

> <Dock Type>
Hybrid

$$$$
MOL0169_4
  -OEChem-06022418243D

 24 25  0     0  0  0  0  0  0999 V2000
   -2.5591   15.1821    1.2388 C   0  0  0  0  0  0  0  0  0  0  0  0
   -0.3909   14.5271    1.1003 C   0  0  0  0  0  0  0  0  0  0  0  0
   -2.7389   14.9932   -0.1217 C   0  0  0  0  0  0  0  0  0  0  0  0
   -1.6203   14.5653   -0.8277 C   0  0  0  0  0  0  0  0  0  0  0  0
   -3.0575   15.1848   -4.2652 C   0  0  0  0  0  0  0  0  0  0  0  0
   -4.0397   15.2877   -0.7999 C   0  0  0  0  0  0  0  0  0  0  0  0
   -1.6802   14.3356   -2.3153 C   0  0  0  0  0  0  0  0  0  0  0  0
   -4.1491   14.5630   -2.1373 C   0  0  0  0  0  0  0  0  0  0  0  0
   -4.3773   14.9123   -4.9438 C   0  0  0  0  0  0  0  0  0  0  0  0
   -1.3972   14.9538    1.8831 N   0  0  0  0  0  0  0  0  0  0  0  0
   -0.4319   14.3169   -0.2291 N   0  0  0  0  0  0  0  0  0  0  0  0
   -2.9412   14.7596   -2.9401 N   0  0  0  0  0  0  0  0  0  0  0  0
   -2.1601   15.7512   -4.8938 O   0  0  0  0  0  0  0  0  0  0  0  0
   -3.3692   15.5332    1.8702 H   0  0  0  0  0  0  0  0  0  0  0  0
    0.5543   14.3305    1.5912 H   0  0  0  0  0  0  0  0  0  0  0  0
   -4.8589   14.9759   -0.1406 H   0  0  0  0  0  0  0  0  0  0  0  0
   -4.1394   16.3658   -0.9718 H   0  0  0  0  0  0  0  0  0  0  0  0
   -0.8809   14.9116   -2.7961 H   0  0  0  0  0  0  0  0  0  0  0  0
   -1.4988   13.2753   -2.5097 H   0  0  0  0  0  0  0  0  0  0  0  0
   -4.3436   13.4989   -1.9691 H   0  0  0  0  0  0  0  0  0  0  0  0
   -4.9885   14.9581   -2.7233 H   0  0  0  0  0  0  0  0  0  0  0  0
   -5.0397   15.7556   -4.7809 H   0  0  0  0  0  0  0  0  0  0  0  0
   -4.8123   14.0114   -4.5240 H   0  0  0  0  0  0  0  0  0  0  0  0
   -4.2070   14.7731   -6.0062 H   0  0  0  0  0  0  0  0  0  0  0  0
  1  3  1  0  0  0  0
  1 10  2  0  0  0  0
  2 10  1  0  0  0  0
  2 11  2  0  0  0  0
  3  4  2  0  0  0  0
  3  6  1  0  0  0  0
  4  7  1  0  0  0  0
  4 11  1  0  0  0  0
  5  9  1  0  0  0  0
  5 12  1  0  0  0  0
  5 13  2  0  0  0  0
  6  8  1  0  0  0  0
  7 12  1  0  0  0  0
  8 12  1  0  0  0  0
  1 14  1  0  0  0  0
  2 15  1  0  0  0  0
  6 16  1  0  0  0  0
  6 17  1  0  0  0  0
  7 18  1  0  0  0  0
  7 19  1  0  0  0  0
  8 20  1  0  0  0  0
  8 21  1  0  0  0  0
  9 22  1  0  0  0  0
  9 23  1  0  0  0  0
  9 24  1  0  0  0  0
M  END
> <HYBRID receptor title>
5S18(A) > WOY(A-201)

> <HYBRID receptor filename>
5s18.oedu

> <HYBRID Chemgauss4 score>
-6.196747

> <HYBRID receptor title>
5S18(A) > WOY(A-201)

> <HYBRID receptor filename>
5s18.oedu

> <Dock Type>
Hybrid

$$$$
MOL0058_1
  -OEChem-06022418243D

 20 21  0     0  0  0  0  0  0999 V2000
   -3.1324   14.7676    1.2230 C   0  0  0  0  0  0  0  0  0  0  0  0
   -3.1714   14.6860   -0.1584 C   0  0  0  0  0  0  0  0  0  0  0  0
   -1.9361   14.6144   -0.7940 C   0  0  0  0  0  0  0  0  0  0  0  0
   -0.8608   14.7428    1.2145 C   0  0  0  0  0  0  0  0  0  0  0  0
   -4.4606   14.6036   -0.9209 C   0  0  0  0  0  0  0  0  0  0  0  0
   -1.8730   14.5514   -2.2973 C   0  0  0  0  0  0  0  0  0  0  0  0
   -3.2027   14.1138   -2.9168 C   0  0  0  0  0  0  0  0  0  0  0  0
   -1.9916   14.8023    1.9413 N   0  0  0  0  0  0  0  0  0  0  0  0
   -0.7615   14.6520   -0.1253 N   0  0  0  0  0  0  0  0  0  0  0  0
   -4.3179   14.8829   -2.3568 N   0  0  0  0  0  0  0  0  0  0  0  0
    0.3220   14.7770    1.9158 O   0  0  0  0  0  0  0  0  0  0  0  0
   -4.0440   14.8109    1.8107 H   0  0  0  0  0  0  0  0  0  0  0  0
   -4.8909   13.5997   -0.8117 H   0  0  0  0  0  0  0  0  0  0  0  0
   -5.1794   15.3109   -0.4855 H   0  0  0  0  0  0  0  0  0  0  0  0
   -1.5920   15.5324   -2.6952 H   0  0  0  0  0  0  0  0  0  0  0  0
   -1.0846   13.8412   -2.5733 H   0  0  0  0  0  0  0  0  0  0  0  0
   -3.1804   14.2298   -4.0103 H   0  0  0  0  0  0  0  0  0  0  0  0
   -3.3646   13.0456   -2.7218 H   0  0  0  0  0  0  0  0  0  0  0  0
   -5.1781   14.6213   -2.8356 H   0  0  0  0  0  0  0  0  0  0  0  0
    1.0635   14.7288    1.2992 H   0  0  0  0  0  0  0  0  0  0  0  0
  1  2  1  0  0  0  0
  1  8  2  0  0  0  0
  2  3  2  0  0  0  0
  2  5  1  0  0  0  0
  3  6  1  0  0  0  0
  3  9  1  0  0  0  0
  4  8  1  0  0  0  0
  4  9  2  0  0  0  0
  4 11  1  0  0  0  0
  5 10  1  0  0  0  0
  6  7  1  0  0  0  0
  7 10  1  0  0  0  0
  1 12  1  0  0  0  0
  5 13  1  0  0  0  0
  5 14  1  0  0  0  0
  6 15  1  0  0  0  0
  6 16  1  0  0  0  0
  7 17  1  0  0  0  0
  7 18  1  0  0  0  0
 10 19  1  0  0  0  0
 11 20  1  0  0  0  0
M  END
> <HYBRID receptor title>
5S18(A) > WOY(A-201)

> <HYBRID receptor filename>
5s18.oedu

> <HYBRID Chemgauss4 score>
-6.194192

> <HYBRID receptor title>
5S18(A) > WOY(A-201)

> <HYBRID receptor filename>
5s18.oedu

> <Dock Type>
Hybrid

$$$$
MOL0086_2
  -OEChem-06022418243D

 22 23  0     1  0  0  0  0  0999 V2000
   -2.7683   15.0852    1.1038 C   0  0  0  0  0  0  0  0  0  0  0  0
   -0.5071   14.8512    0.8776 C   0  0  0  0  0  0  0  0  0  0  0  0
   -2.9111   14.8946   -0.2458 C   0  0  0  0  0  0  0  0  0  0  0  0
   -1.7669   14.6839   -0.9949 C   0  0  0  0  0  0  0  0  0  0  0  0
   -4.1267   14.8899   -1.1041 C   0  0  0  0  0  0  0  0  0  0  0  0
   -3.5348   14.5469   -2.4983 C   0  0  2  0  0  0  0  0  0  0  0  0
   -5.5127   13.1844   -3.1912 C   0  0  0  0  0  0  0  0  0  0  0  0
   -4.0286   13.2005   -3.0152 C   0  0  0  0  0  0  0  0  0  0  0  0
   -1.5596   15.0664    1.7014 N   0  0  0  0  0  0  0  0  0  0  0  0
   -0.5355   14.6561   -0.4587 N   0  0  0  0  0  0  0  0  0  0  0  0
   -2.0853   14.5102   -2.3462 N   0  0  0  0  0  0  0  0  0  0  0  0
   -3.6160   15.2609    1.7549 H   0  0  0  0  0  0  0  0  0  0  0  0
    0.4705   14.8341    1.3446 H   0  0  0  0  0  0  0  0  0  0  0  0
   -4.8527   14.1471   -0.7594 H   0  0  0  0  0  0  0  0  0  0  0  0
   -4.5835   15.8849   -1.1126 H   0  0  0  0  0  0  0  0  0  0  0  0
   -3.8099   15.3267   -3.2182 H   0  0  0  0  0  0  0  0  0  0  0  0
   -6.0008   13.4020   -2.2339 H   0  0  0  0  0  0  0  0  0  0  0  0
   -5.8546   12.2008   -3.5306 H   0  0  0  0  0  0  0  0  0  0  0  0
   -5.8277   13.9446   -3.9137 H   0  0  0  0  0  0  0  0  0  0  0  0
   -3.5453   12.9829   -3.9723 H   0  0  0  0  0  0  0  0  0  0  0  0
   -3.7362   12.4154   -2.3115 H   0  0  0  0  0  0  0  0  0  0  0  0
   -1.4153   14.3237   -3.0758 H   0  0  0  0  0  0  0  0  0  0  0  0
  1  3  1  0  0  0  0
  1  9  2  0  0  0  0
  2  9  1  0  0  0  0
  2 10  2  0  0  0  0
  3  4  2  0  0  0  0
  3  5  1  0  0  0  0
  4 10  1  0  0  0  0
  4 11  1  0  0  0  0
  5  6  1  0  0  0  0
  6  8  1  0  0  0  0
  6 11  1  0  0  0  0
  7  8  1  0  0  0  0
  1 12  1  0  0  0  0
  2 13  1  0  0  0  0
  5 14  1  0  0  0  0
  5 15  1  0  0  0  0
  6 16  1  0  0  0  0
  7 17  1  0  0  0  0
  7 18  1  0  0  0  0
  7 19  1  0  0  0  0
  8 20  1  0  0  0  0
  8 21  1  0  0  0  0
 11 22  1  0  0  0  0
M  END
> <HYBRID receptor title>
5S18(A) > WOY(A-201)

> <HYBRID receptor filename>
5s18.oedu

> <HYBRID Chemgauss4 score>
-6.179111

> <HYBRID receptor title>
5S18(A) > WOY(A-201)

> <HYBRID receptor filename>
5s18.oedu

> <Dock Type>
Hybrid

$$$$
MOL0140_7
  -OEChem-06022418243D

 32 34  0     0  0  0  0  0  0999 V2000
   -1.0183   15.0448    0.9536 C   0  0  0  0  0  0  0  0  0  0  0  0
   -3.2770   14.8706    1.5169 C   0  0  0  0  0  0  0  0  0  0  0  0
   -4.3887   14.3788   -1.8497 C   0  0  0  0  0  0  0  0  0  0  0  0
   -1.2239   14.8713   -0.4101 C   0  0  0  0  0  0  0  0  0  0  0  0
   -2.5542   14.6881   -0.8013 C   0  0  0  0  0  0  0  0  0  0  0  0
   -3.5500   14.6918    0.1705 C   0  0  0  0  0  0  0  0  0  0  0  0
    3.4060   12.8929   -3.4826 C   0  0  0  0  0  0  0  0  0  0  0  0
    2.5103   12.4212   -4.6241 C   0  0  0  0  0  0  0  0  0  0  0  0
    2.4519   13.2833   -2.3633 C   0  0  0  0  0  0  0  0  0  0  0  0
    1.0893   12.5605   -4.0984 C   0  0  0  0  0  0  0  0  0  0  0  0
   -0.0582   14.8852   -1.3682 C   0  0  0  0  0  0  0  0  0  0  0  0
    0.0668   13.5937   -2.1728 C   0  0  0  0  0  0  0  0  0  0  0  0
   -1.9896   15.0484    1.8998 N   0  0  0  0  0  0  0  0  0  0  0  0
   -3.0947   14.4924   -2.0513 N   0  0  0  0  0  0  0  0  0  0  0  0
   -4.7124   14.4921   -0.5258 N   0  0  0  0  0  0  0  0  0  0  0  0
    1.2184   13.6060   -3.0822 N   0  0  0  0  0  0  0  0  0  0  0  0
   -0.0160   15.1948    1.3464 H   0  0  0  0  0  0  0  0  0  0  0  0
   -4.0337   14.8770    2.2890 H   0  0  0  0  0  0  0  0  0  0  0  0
   -5.1385   14.2156   -2.6106 H   0  0  0  0  0  0  0  0  0  0  0  0
    4.1010   12.1100   -3.1623 H   0  0  0  0  0  0  0  0  0  0  0  0
    3.9988   13.7558   -3.8085 H   0  0  0  0  0  0  0  0  0  0  0  0
    2.6644   13.0573   -5.5036 H   0  0  0  0  0  0  0  0  0  0  0  0
    2.7316   11.3887   -4.9133 H   0  0  0  0  0  0  0  0  0  0  0  0
    2.3144   12.4344   -1.6811 H   0  0  0  0  0  0  0  0  0  0  0  0
    2.8301   14.1351   -1.7893 H   0  0  0  0  0  0  0  0  0  0  0  0
    0.3906   12.8409   -4.8929 H   0  0  0  0  0  0  0  0  0  0  0  0
    0.7600   11.6083   -3.6627 H   0  0  0  0  0  0  0  0  0  0  0  0
    0.8629   15.0448   -0.7934 H   0  0  0  0  0  0  0  0  0  0  0  0
   -0.1443   15.7449   -2.0450 H   0  0  0  0  0  0  0  0  0  0  0  0
    0.2080   12.7450   -1.4961 H   0  0  0  0  0  0  0  0  0  0  0  0
   -0.8278   13.4049   -2.7752 H   0  0  0  0  0  0  0  0  0  0  0  0
   -5.6429   14.4394   -0.1332 H   0  0  0  0  0  0  0  0  0  0  0  0
  1  4  2  0  0  0  0
  1 13  1  0  0  0  0
  2  6  1  0  0  0  0
  2 13  2  0  0  0  0
  3 14  2  0  0  0  0
  3 15  1  0  0  0  0
  4  5  1  0  0  0  0
  4 11  1  0  0  0  0
  5  6  2  0  0  0  0
  5 14  1  0  0  0  0
  6 15  1  0  0  0  0
  7  8  1  0  0  0  0
  7  9  1  0  0  0  0
  8 10  1  0  0  0  0
  9 16  1  0  0  0  0
 10 16  1  0  0  0  0
 11 12  1  0  0  0  0
 12 16  1  0  0  0  0
  1 17  1  0  0  0  0
  2 18  1  0  0  0  0
  3 19  1  0  0  0  0
  7 20  1  0  0  0  0
  7 21  1  0  0  0  0
  8 22  1  0  0  0  0
  8 23  1  0  0  0  0
  9 24  1  0  0  0  0
  9 25  1  0  0  0  0
 10 26  1  0  0  0  0
 10 27  1  0  0  0  0
 11 28  1  0  0  0  0
 11 29  1  0  0  0  0
 12 30  1  0  0  0  0
 12 31  1  0  0  0  0
 15 32  1  0  0  0  0
M  END
> <HYBRID receptor title>
5S18(A) > WOY(A-201)

> <HYBRID receptor filename>
5s18.oedu

> <HYBRID Chemgauss4 score>
-6.178343

> <HYBRID receptor title>
5S18(A) > WOY(A-201)

> <HYBRID receptor filename>
5s18.oedu

> <Dock Type>
Hybrid

$$$$
MOL0029_1
  -OEChem-06022418243D

 19 20  0     1  0  0  0  0  0999 V2000
   -2.4501   15.0320    1.2997 C   0  0  0  0  0  0  0  0  0  0  0  0
   -0.2326   14.6162    0.9405 C   0  0  0  0  0  0  0  0  0  0  0  0
   -2.6855   14.8700   -0.0407 C   0  0  0  0  0  0  0  0  0  0  0  0
   -1.6075   14.5751   -0.8566 C   0  0  0  0  0  0  0  0  0  0  0  0
   -3.9447   14.9749   -0.8268 C   0  0  0  0  0  0  0  0  0  0  0  0
   -3.4645   14.5986   -2.2550 C   0  0  2  0  0  0  0  0  0  0  0  0
   -4.0945   13.3011   -2.7481 C   0  0  0  0  0  0  0  0  0  0  0  0
   -1.2147   14.9071    1.8257 N   0  0  0  0  0  0  0  0  0  0  0  0
   -0.3539   14.4400   -0.3933 N   0  0  0  0  0  0  0  0  0  0  0  0
   -2.0163   14.4441   -2.1883 N   0  0  0  0  0  0  0  0  0  0  0  0
   -3.2417   15.2690    2.0000 H   0  0  0  0  0  0  0  0  0  0  0  0
    0.7654   14.5134    1.3497 H   0  0  0  0  0  0  0  0  0  0  0  0
   -4.7090   14.2915   -0.4444 H   0  0  0  0  0  0  0  0  0  0  0  0
   -4.3164   16.0046   -0.8037 H   0  0  0  0  0  0  0  0  0  0  0  0
   -3.7173   15.4045   -2.9541 H   0  0  0  0  0  0  0  0  0  0  0  0
   -3.8536   12.4873   -2.0645 H   0  0  0  0  0  0  0  0  0  0  0  0
   -3.7136   13.0558   -3.7392 H   0  0  0  0  0  0  0  0  0  0  0  0
   -5.1775   13.4102   -2.8016 H   0  0  0  0  0  0  0  0  0  0  0  0
   -1.4070   14.2117   -2.9570 H   0  0  0  0  0  0  0  0  0  0  0  0
  1  3  1  0  0  0  0
  1  8  2  0  0  0  0
  2  8  1  0  0  0  0
  2  9  2  0  0  0  0
  3  4  2  0  0  0  0
  3  5  1  0  0  0  0
  4  9  1  0  0  0  0
  4 10  1  0  0  0  0
  5  6  1  0  0  0  0
  6  7  1  0  0  0  0
  6 10  1  0  0  0  0
  1 11  1  0  0  0  0
  2 12  1  0  0  0  0
  5 13  1  0  0  0  0
  5 14  1  0  0  0  0
  6 15  1  0  0  0  0
  7 16  1  0  0  0  0
  7 17  1  0  0  0  0
  7 18  1  0  0  0  0
 10 19  1  0  0  0  0
M  END
> <HYBRID receptor title>
5S18(A) > WOY(A-201)

> <HYBRID receptor filename>
5s18.oedu

> <HYBRID Chemgauss4 score>
-6.168950

> <HYBRID receptor title>
5S18(A) > WOY(A-201)

> <HYBRID receptor filename>
5s18.oedu

> <Dock Type>
Hybrid

$$$$
MOL0063_1
  -OEChem-06022418243D

 20 21  0     0  0  0  0  0  0999 V2000
   -2.4376   15.0118    1.3740 C   0  0  0  0  0  0  0  0  0  0  0  0
   -0.1726   14.7158    1.1297 C   0  0  0  0  0  0  0  0  0  0  0  0
   -2.6532   14.9634    0.0010 C   0  0  0  0  0  0  0  0  0  0  0  0
   -1.5405   14.7548   -0.8244 C   0  0  0  0  0  0  0  0  0  0  0  0
   -0.2737   14.6416   -0.2502 C   0  0  0  0  0  0  0  0  0  0  0  0
   -1.7076   14.7162   -2.3213 C   0  0  0  0  0  0  0  0  0  0  0  0
   -4.0393   15.0611   -0.5748 C   0  0  0  0  0  0  0  0  0  0  0  0
   -3.1608   14.4825   -2.7423 C   0  0  0  0  0  0  0  0  0  0  0  0
   -1.2241   14.8957    1.9585 N   0  0  0  0  0  0  0  0  0  0  0  0
   -4.0540   15.3791   -2.0080 N   0  0  0  0  0  0  0  0  0  0  0  0
    1.3213   14.4196   -1.2481 Br  0  0  0  0  0  0  0  0  0  0  0  0
   -3.2628   15.1482    2.0662 H   0  0  0  0  0  0  0  0  0  0  0  0
    0.7843   14.6367    1.6375 H   0  0  0  0  0  0  0  0  0  0  0  0
   -1.3574   15.6707   -2.7345 H   0  0  0  0  0  0  0  0  0  0  0  0
   -1.1080   13.9108   -2.7598 H   0  0  0  0  0  0  0  0  0  0  0  0
   -4.5615   14.1119   -0.4019 H   0  0  0  0  0  0  0  0  0  0  0  0
   -4.5952   15.8474   -0.0513 H   0  0  0  0  0  0  0  0  0  0  0  0
   -3.2581   14.6710   -3.8173 H   0  0  0  0  0  0  0  0  0  0  0  0
   -3.4513   13.4371   -2.5752 H   0  0  0  0  0  0  0  0  0  0  0  0
   -5.0051   15.2785   -2.3615 H   0  0  0  0  0  0  0  0  0  0  0  0
  1  3  2  0  0  0  0
  1  9  1  0  0  0  0
  2  5  1  0  0  0  0
  2  9  2  0  0  0  0
  3  4  1  0  0  0  0
  3  7  1  0  0  0  0
  4  5  2  0  0  0  0
  4  6  1  0  0  0  0
  5 11  1  0  0  0  0
  6  8  1  0  0  0  0
  7 10  1  0  0  0  0
  8 10  1  0  0  0  0
  1 12  1  0  0  0  0
  2 13  1  0  0  0  0
  6 14  1  0  0  0  0
  6 15  1  0  0  0  0
  7 16  1  0  0  0  0
  7 17  1  0  0  0  0
  8 18  1  0  0  0  0
  8 19  1  0  0  0  0
 10 20  1  0  0  0  0
M  END
> <HYBRID receptor title>
5S18(A) > WOY(A-201)

> <HYBRID receptor filename>
5s18.oedu

> <HYBRID Chemgauss4 score>
-6.167661

> <HYBRID receptor title>
5S18(A) > WOY(A-201)

> <HYBRID receptor filename>
5s18.oedu

> <Dock Type>
Hybrid

$$$$
MOL0115_1
  -OEChem-06022418243D

 17 18  0     0  0  0  0  0  0999 V2000
    0.0330   14.6147    1.1558 C   0  0  0  0  0  0  0  0  0  0  0  0
   -2.2056   15.1047   -0.1821 C   0  0  0  0  0  0  0  0  0  0  0  0
   -2.1168   15.3170    1.1843 C   0  0  0  0  0  0  0  0  0  0  0  0
   -1.0989   14.6233   -0.8300 C   0  0  0  0  0  0  0  0  0  0  0  0
   -3.5700   15.4209   -0.6795 C   0  0  0  0  0  0  0  0  0  0  0  0
   -4.1936   16.1055    0.5561 C   0  0  0  0  0  0  0  0  0  0  0  0
   -1.0004   15.0789    1.8917 N   0  0  0  0  0  0  0  0  0  0  0  0
    0.0529   14.3695   -0.1760 N   0  0  0  0  0  0  0  0  0  0  0  0
   -3.3359   15.7948    1.6874 N   0  0  0  0  0  0  0  0  0  0  0  0
   -1.1303   14.3783   -2.1734 O   0  0  0  0  0  0  0  0  0  0  0  0
    0.9526   14.4138    1.6927 H   0  0  0  0  0  0  0  0  0  0  0  0
   -3.5493   16.0966   -1.5392 H   0  0  0  0  0  0  0  0  0  0  0  0
   -4.1071   14.5010   -0.9315 H   0  0  0  0  0  0  0  0  0  0  0  0
   -4.2220   17.1921    0.4101 H   0  0  0  0  0  0  0  0  0  0  0  0
   -5.2190   15.7624    0.7266 H   0  0  0  0  0  0  0  0  0  0  0  0
   -3.4848   16.0805    2.6426 H   0  0  0  0  0  0  0  0  0  0  0  0
   -0.2707   14.0436   -2.4695 H   0  0  0  0  0  0  0  0  0  0  0  0
  1  7  1  0  0  0  0
  1  8  2  0  0  0  0
  2  3  1  0  0  0  0
  2  4  2  0  0  0  0
  2  5  1  0  0  0  0
  3  7  2  0  0  0  0
  3  9  1  0  0  0  0
  4  8  1  0  0  0  0
  4 10  1  0  0  0  0
  5  6  1  0  0  0  0
  6  9  1  0  0  0  0
  1 11  1  0  0  0  0
  5 12  1  0  0  0  0
  5 13  1  0  0  0  0
  6 14  1  0  0  0  0
  6 15  1  0  0  0  0
  9 16  1  0  0  0  0
 10 17  1  0  0  0  0
M  END
> <HYBRID receptor title>
5S18(A) > WOY(A-201)

> <HYBRID receptor filename>
5s18.oedu

> <HYBRID Chemgauss4 score>
-6.165559

> <HYBRID receptor title>
5S18(A) > WOY(A-201)

> <HYBRID receptor filename>
5s18.oedu

> <Dock Type>
Hybrid

$$$$
MOL0121_2
  -OEChem-06022418243D

 24 25  0     0  0  0  0  0  0999 V2000
   -1.0607   15.0345    0.9107 C   0  0  0  0  0  0  0  0  0  0  0  0
   -3.4720   15.1129   -0.2718 C   0  0  0  0  0  0  0  0  0  0  0  0
   -2.3170   14.8007   -0.9812 C   0  0  0  0  0  0  0  0  0  0  0  0
   -3.2971   15.3985    1.0711 C   0  0  0  0  0  0  0  0  0  0  0  0
   -4.8068   15.2022   -0.9466 C   0  0  0  0  0  0  0  0  0  0  0  0
   -2.4052   14.4407   -2.4422 C   0  0  0  0  0  0  0  0  0  0  0  0
   -4.8086   14.5238   -2.3195 C   0  0  0  0  0  0  0  0  0  0  0  0
   -4.8595   17.1090    1.9975 C   0  0  0  0  0  0  0  0  0  0  0  0
   -1.0952   14.7447   -0.4041 N   0  0  0  0  0  0  0  0  0  0  0  0
   -2.1025   15.3645    1.6956 N   0  0  0  0  0  0  0  0  0  0  0  0
   -3.6300   14.9240   -3.0904 N   0  0  0  0  0  0  0  0  0  0  0  0
   -4.4279   15.7576    1.8448 N   0  0  0  0  0  0  0  0  0  0  0  0
   -0.0890   14.9975    1.3876 H   0  0  0  0  0  0  0  0  0  0  0  0
   -5.5825   14.7311   -0.3318 H   0  0  0  0  0  0  0  0  0  0  0  0
   -5.0655   16.2622   -1.0644 H   0  0  0  0  0  0  0  0  0  0  0  0
   -1.5422   14.8592   -2.9721 H   0  0  0  0  0  0  0  0  0  0  0  0
   -2.3446   13.3501   -2.5396 H   0  0  0  0  0  0  0  0  0  0  0  0
   -4.8315   13.4317   -2.2126 H   0  0  0  0  0  0  0  0  0  0  0  0
   -5.7153   14.8046   -2.8664 H   0  0  0  0  0  0  0  0  0  0  0  0
   -4.1892   17.7745    1.4338 H   0  0  0  0  0  0  0  0  0  0  0  0
   -5.8854   17.2117    1.6141 H   0  0  0  0  0  0  0  0  0  0  0  0
   -4.8371   17.3828    3.0627 H   0  0  0  0  0  0  0  0  0  0  0  0
   -3.5987   15.9420   -3.1515 H   0  0  0  0  0  0  0  0  0  0  0  0
   -4.9217   15.0111    2.2903 H   0  0  0  0  0  0  0  0  0  0  0  0
  1  9  1  0  0  0  0
  1 10  2  0  0  0  0
  2  3  1  0  0  0  0
  2  4  2  0  0  0  0
  2  5  1  0  0  0  0
  3  6  1  0  0  0  0
  3  9  2  0  0  0  0
  4 10  1  0  0  0  0
  4 12  1  0  0  0  0
  5  7  1  0  0  0  0
  6 11  1  0  0  0  0
  7 11  1  0  0  0  0
  8 12  1  0  0  0  0
  1 13  1  0  0  0  0
  5 14  1  0  0  0  0
  5 15  1  0  0  0  0
  6 16  1  0  0  0  0
  6 17  1  0  0  0  0
  7 18  1  0  0  0  0
  7 19  1  0  0  0  0
  8 20  1  0  0  0  0
  8 21  1  0  0  0  0
  8 22  1  0  0  0  0
 11 23  1  0  0  0  0
 12 24  1  0  0  0  0
M  END
> <HYBRID receptor title>
5S18(A) > WOY(A-201)

> <HYBRID receptor filename>
5s18.oedu

> <HYBRID Chemgauss4 score>
-6.163733

> <HYBRID receptor title>
5S18(A) > WOY(A-201)

> <HYBRID receptor filename>
5s18.oedu

> <Dock Type>
Hybrid

$$$$
MOL0037_1
  -OEChem-06022418243D

 22 23  0     1  0  0  0  0  0999 V2000
   -2.6313   15.2817    1.5045 C   0  0  0  0  0  0  0  0  0  0  0  0
   -0.4709   14.7863    1.0201 C   0  0  0  0  0  0  0  0  0  0  0  0
   -2.9962   15.1459    0.1748 C   0  0  0  0  0  0  0  0  0  0  0  0
   -1.9781   14.7801   -0.7018 C   0  0  0  0  0  0  0  0  0  0  0  0
   -4.4144   15.3197   -0.2793 C   0  0  0  0  0  0  0  0  0  0  0  0
   -3.7863   14.5050   -2.4529 C   0  0  0  0  0  0  0  0  0  0  0  0
   -2.2760   14.6472   -2.1837 C   0  0  2  0  0  0  0  0  0  0  0  0
   -1.5286   13.4741   -2.8230 C   0  0  0  0  0  0  0  0  0  0  0  0
   -1.3747   15.1106    1.9610 N   0  0  0  0  0  0  0  0  0  0  0  0
   -0.6972   14.6149   -0.2963 N   0  0  0  0  0  0  0  0  0  0  0  0
   -4.5345   15.5312   -1.7256 N   0  0  0  0  0  0  0  0  0  0  0  0
   -3.3617   15.5400    2.2649 H   0  0  0  0  0  0  0  0  0  0  0  0
    0.5495   14.6491    1.3560 H   0  0  0  0  0  0  0  0  0  0  0  0
   -4.9924   14.4352    0.0152 H   0  0  0  0  0  0  0  0  0  0  0  0
   -4.8542   16.1877    0.2249 H   0  0  0  0  0  0  0  0  0  0  0  0
   -3.9750   14.6227   -3.5263 H   0  0  0  0  0  0  0  0  0  0  0  0
   -4.1485   13.5064   -2.1741 H   0  0  0  0  0  0  0  0  0  0  0  0
   -1.9280   15.5757   -2.6570 H   0  0  0  0  0  0  0  0  0  0  0  0
   -1.8566   12.5413   -2.3701 H   0  0  0  0  0  0  0  0  0  0  0  0
   -0.4590   13.5931   -2.6663 H   0  0  0  0  0  0  0  0  0  0  0  0
   -1.7349   13.4474   -3.8906 H   0  0  0  0  0  0  0  0  0  0  0  0
   -5.5189   15.4856   -1.9876 H   0  0  0  0  0  0  0  0  0  0  0  0
  1  3  1  0  0  0  0
  1  9  2  0  0  0  0
  2  9  1  0  0  0  0
  2 10  2  0  0  0  0
  3  4  2  0  0  0  0
  3  5  1  0  0  0  0
  4  7  1  0  0  0  0
  4 10  1  0  0  0  0
  5 11  1  0  0  0  0
  6  7  1  0  0  0  0
  6 11  1  0  0  0  0
  7  8  1  0  0  0  0
  1 12  1  0  0  0  0
  2 13  1  0  0  0  0
  5 14  1  0  0  0  0
  5 15  1  0  0  0  0
  6 16  1  0  0  0  0
  6 17  1  0  0  0  0
  7 18  1  0  0  0  0
  8 19  1  0  0  0  0
  8 20  1  0  0  0  0
  8 21  1  0  0  0  0
 11 22  1  0  0  0  0
M  END
> <HYBRID receptor title>
5S18(A) > WOY(A-201)

> <HYBRID receptor filename>
5s18.oedu

> <HYBRID Chemgauss4 score>
-6.147924

> <HYBRID receptor title>
5S18(A) > WOY(A-201)

> <HYBRID receptor filename>
5s18.oedu

> <Dock Type>
Hybrid

$$$$
MOL0153_1
  -OEChem-06022418243D

 29 31  0     1  0  0  0  0  0999 V2000
   -2.7600   15.1450    1.1774 C   0  0  0  0  0  0  0  0  0  0  0  0
   -0.4880   14.9181    1.1007 C   0  0  0  0  0  0  0  0  0  0  0  0
   -2.8037   15.0495   -0.1891 C   0  0  0  0  0  0  0  0  0  0  0  0
   -1.6077   14.8868   -0.8657 C   0  0  0  0  0  0  0  0  0  0  0  0
   -3.9535   15.1096   -1.1318 C   0  0  0  0  0  0  0  0  0  0  0  0
   -5.3486   12.4025   -4.4708 C   0  0  0  0  0  0  0  0  0  0  0  0
   -3.9811   12.2551   -5.1402 C   0  0  0  0  0  0  0  0  0  0  0  0
   -5.2050   13.5338   -3.4574 C   0  0  0  0  0  0  0  0  0  0  0  0
   -3.0859   13.3173   -4.5104 C   0  0  0  0  0  0  0  0  0  0  0  0
   -3.7128   13.5620   -3.1415 C   0  0  0  0  0  0  0  0  0  0  0  0
   -3.2611   14.8622   -2.4998 C   0  0  2  0  0  0  0  0  0  0  0  0
   -1.5981   15.0796    1.8587 N   0  0  0  0  0  0  0  0  0  0  0  0
   -0.4187   14.8167   -0.2445 N   0  0  0  0  0  0  0  0  0  0  0  0
   -1.8265   14.8090   -2.2454 N   0  0  0  0  0  0  0  0  0  0  0  0
   -3.6531   15.2784    1.7757 H   0  0  0  0  0  0  0  0  0  0  0  0
    0.4529   14.8645    1.6354 H   0  0  0  0  0  0  0  0  0  0  0  0
   -4.7019   14.3477   -0.8936 H   0  0  0  0  0  0  0  0  0  0  0  0
   -4.4094   16.1047   -1.1041 H   0  0  0  0  0  0  0  0  0  0  0  0
   -6.1370   12.6187   -5.1991 H   0  0  0  0  0  0  0  0  0  0  0  0
   -5.6167   11.4676   -3.9650 H   0  0  0  0  0  0  0  0  0  0  0  0
   -3.5801   11.2538   -4.9453 H   0  0  0  0  0  0  0  0  0  0  0  0
   -4.0429   12.3779   -6.2261 H   0  0  0  0  0  0  0  0  0  0  0  0
   -5.5262   14.4794   -3.9116 H   0  0  0  0  0  0  0  0  0  0  0  0
   -5.8168   13.3655   -2.5657 H   0  0  0  0  0  0  0  0  0  0  0  0
   -2.0451   12.9869   -4.4400 H   0  0  0  0  0  0  0  0  0  0  0  0
   -3.1089   14.2293   -5.1197 H   0  0  0  0  0  0  0  0  0  0  0  0
   -3.4672   12.7242   -2.4749 H   0  0  0  0  0  0  0  0  0  0  0  0
   -3.4837   15.6914   -3.1816 H   0  0  0  0  0  0  0  0  0  0  0  0
   -1.1049   14.6711   -2.9355 H   0  0  0  0  0  0  0  0  0  0  0  0
  1  3  1  0  0  0  0
  1 12  2  0  0  0  0
  2 12  1  0  0  0  0
  2 13  2  0  0  0  0
  3  4  2  0  0  0  0
  3  5  1  0  0  0  0
  4 13  1  0  0  0  0
  4 14  1  0  0  0  0
  5 11  1  0  0  0  0
  6  7  1  0  0  0  0
  6  8  1  0  0  0  0
  7  9  1  0  0  0  0
  8 10  1  0  0  0  0
  9 10  1  0  0  0  0
 10 11  1  0  0  0  0
 11 14  1  0  0  0  0
  1 15  1  0  0  0  0
  2 16  1  0  0  0  0
  5 17  1  0  0  0  0
  5 18  1  0  0  0  0
  6 19  1  0  0  0  0
  6 20  1  0  0  0  0
  7 21  1  0  0  0  0
  7 22  1  0  0  0  0
  8 23  1  0  0  0  0
  8 24  1  0  0  0  0
  9 25  1  0  0  0  0
  9 26  1  0  0  0  0
 10 27  1  0  0  0  0
 11 28  1  0  0  0  0
 14 29  1  0  0  0  0
M  END
> <HYBRID receptor title>
5S18(A) > WOY(A-201)

> <HYBRID receptor filename>
5s18.oedu

> <HYBRID Chemgauss4 score>
-6.138416

> <HYBRID receptor title>
5S18(A) > WOY(A-201)

> <HYBRID receptor filename>
5s18.oedu

> <Dock Type>
Hybrid

$$$$
MOL0201_1
  -OEChem-06022418243D

 21 22  0     0  0  0  0  0  0999 V2000
    0.0028   14.8034    1.0915 C   0  0  0  0  0  0  0  0  0  0  0  0
    0.0423   14.7150   -0.2749 C   0  0  0  0  0  0  0  0  0  0  0  0
   -1.1615   14.7205   -0.9608 C   0  0  0  0  0  0  0  0  0  0  0  0
   -2.2788   14.9046    0.9971 C   0  0  0  0  0  0  0  0  0  0  0  0
    1.1854   14.5639   -1.2126 C   0  0  0  0  0  0  0  0  0  0  0  0
    0.4867   14.7492   -2.5770 C   0  0  0  0  0  0  0  0  0  0  0  0
   -4.7710   15.0233    1.0175 C   0  0  0  0  0  0  0  0  0  0  0  0
   -1.1621   14.9050    1.7635 N   0  0  0  0  0  0  0  0  0  0  0  0
   -2.3532   14.8142   -0.3487 N   0  0  0  0  0  0  0  0  0  0  0  0
   -0.9406   14.6095   -2.3416 N   0  0  0  0  0  0  0  0  0  0  0  0
   -3.5080   15.0085    1.6856 N   0  0  0  0  0  0  0  0  0  0  0  0
    0.9006   14.7934    1.6972 H   0  0  0  0  0  0  0  0  0  0  0  0
    1.9530   15.3260   -1.0517 H   0  0  0  0  0  0  0  0  0  0  0  0
    1.6190   13.5626   -1.1269 H   0  0  0  0  0  0  0  0  0  0  0  0
    0.6929   15.7511   -2.9728 H   0  0  0  0  0  0  0  0  0  0  0  0
    0.8436   14.0185   -3.3099 H   0  0  0  0  0  0  0  0  0  0  0  0
   -4.6131   14.9417   -0.0681 H   0  0  0  0  0  0  0  0  0  0  0  0
   -5.3791   14.1748    1.3642 H   0  0  0  0  0  0  0  0  0  0  0  0
   -5.2935   15.9649    1.2421 H   0  0  0  0  0  0  0  0  0  0  0  0
   -1.6664   14.6584   -3.0395 H   0  0  0  0  0  0  0  0  0  0  0  0
   -3.4628   15.0745    2.6839 H   0  0  0  0  0  0  0  0  0  0  0  0
  1  2  1  0  0  0  0
  1  8  2  0  0  0  0
  2  3  2  0  0  0  0
  2  5  1  0  0  0  0
  3  9  1  0  0  0  0
  3 10  1  0  0  0  0
  4  8  1  0  0  0  0
  4  9  2  0  0  0  0
  4 11  1  0  0  0  0
  5  6  1  0  0  0  0
  6 10  1  0  0  0  0
  7 11  1  0  0  0  0
  1 12  1  0  0  0  0
  5 13  1  0  0  0  0
  5 14  1  0  0  0  0
  6 15  1  0  0  0  0
  6 16  1  0  0  0  0
  7 17  1  0  0  0  0
  7 18  1  0  0  0  0
  7 19  1  0  0  0  0
 10 20  1  0  0  0  0
 11 21  1  0  0  0  0
M  END
> <HYBRID receptor title>
5S18(A) > WOY(A-201)

> <HYBRID receptor filename>
5s18.oedu

> <HYBRID Chemgauss4 score>
-6.128114

> <HYBRID receptor title>
5S18(A) > WOY(A-201)

> <HYBRID receptor filename>
5s18.oedu

> <Dock Type>
Hybrid

$$$$
MOL0015_1
  -OEChem-06022418243D

 22 23  0     0  0  0  0  0  0999 V2000
   -3.3311   14.9747    1.2404 C   0  0  0  0  0  0  0  0  0  0  0  0
   -3.6358   14.7989   -0.0986 C   0  0  0  0  0  0  0  0  0  0  0  0
   -2.5477   14.6231   -0.9472 C   0  0  0  0  0  0  0  0  0  0  0  0
   -1.1051   14.8389    0.8075 C   0  0  0  0  0  0  0  0  0  0  0  0
   -5.0488   14.7263   -0.5968 C   0  0  0  0  0  0  0  0  0  0  0  0
   -2.7748   14.4522   -2.4261 C   0  0  0  0  0  0  0  0  0  0  0  0
   -4.2126   14.0376   -2.7491 C   0  0  0  0  0  0  0  0  0  0  0  0
    0.2994   14.8694    1.3082 C   0  0  0  0  0  0  0  0  0  0  0  0
   -2.0736   15.0040    1.7268 N   0  0  0  0  0  0  0  0  0  0  0  0
   -1.2664   14.6500   -0.5159 N   0  0  0  0  0  0  0  0  0  0  0  0
   -5.1732   14.8973   -2.0513 N   0  0  0  0  0  0  0  0  0  0  0  0
   -4.1117   15.1022    1.9837 H   0  0  0  0  0  0  0  0  0  0  0  0
   -5.4846   13.7544   -0.3313 H   0  0  0  0  0  0  0  0  0  0  0  0
   -5.6464   15.4964   -0.0907 H   0  0  0  0  0  0  0  0  0  0  0  0
   -2.5405   15.3882   -2.9445 H   0  0  0  0  0  0  0  0  0  0  0  0
   -2.0785   13.6865   -2.7890 H   0  0  0  0  0  0  0  0  0  0  0  0
   -4.3953   14.0763   -3.8329 H   0  0  0  0  0  0  0  0  0  0  0  0
   -4.3710   12.9945   -2.4453 H   0  0  0  0  0  0  0  0  0  0  0  0
    0.6280   13.8605    1.5862 H   0  0  0  0  0  0  0  0  0  0  0  0
    0.9858   15.2612    0.5463 H   0  0  0  0  0  0  0  0  0  0  0  0
    0.3952   15.5209    2.1867 H   0  0  0  0  0  0  0  0  0  0  0  0
   -6.1172   14.6447   -2.3385 H   0  0  0  0  0  0  0  0  0  0  0  0
  1  2  1  0  0  0  0
  1  9  2  0  0  0  0
  2  3  2  0  0  0  0
  2  5  1  0  0  0  0
  3  6  1  0  0  0  0
  3 10  1  0  0  0  0
  4  8  1  0  0  0  0
  4  9  1  0  0  0  0
  4 10  2  0  0  0  0
  5 11  1  0  0  0  0
  6  7  1  0  0  0  0
  7 11  1  0  0  0  0
  1 12  1  0  0  0  0
  5 13  1  0  0  0  0
  5 14  1  0  0  0  0
  6 15  1  0  0  0  0
  6 16  1  0  0  0  0
  7 17  1  0  0  0  0
  7 18  1  0  0  0  0
  8 19  1  0  0  0  0
  8 20  1  0  0  0  0
  8 21  1  0  0  0  0
 11 22  1  0  0  0  0
M  END
> <HYBRID receptor title>
5S18(A) > WOY(A-201)

> <HYBRID receptor filename>
5s18.oedu

> <HYBRID Chemgauss4 score>
-6.126360

> <HYBRID receptor title>
5S18(A) > WOY(A-201)

> <HYBRID receptor filename>
5s18.oedu

> <Dock Type>
Hybrid

$$$$
MOL0019_1
  -OEChem-06022418243D

 18 19  0     0  0  0  0  0  0999 V2000
   -1.8888   15.0252   -0.9093 C   0  0  0  0  0  0  0  0  0  0  0  0
   -2.9445   15.3021   -0.0815 C   0  0  0  0  0  0  0  0  0  0  0  0
   -2.7365   15.2189    1.2858 C   0  0  0  0  0  0  0  0  0  0  0  0
   -0.5792   14.6431    0.9247 C   0  0  0  0  0  0  0  0  0  0  0  0
   -4.3574   15.6523   -0.3818 C   0  0  0  0  0  0  0  0  0  0  0  0
   -4.8839   16.0238    1.0213 C   0  0  0  0  0  0  0  0  0  0  0  0
   -0.6749   14.6920   -0.4254 N   0  0  0  0  0  0  0  0  0  0  0  0
   -1.5534   14.8877    1.8281 N   0  0  0  0  0  0  0  0  0  0  0  0
   -3.9173   15.5180    1.9814 N   0  0  0  0  0  0  0  0  0  0  0  0
    0.6856   14.2937    1.4483 N   0  0  0  0  0  0  0  0  0  0  0  0
   -1.9769   15.0576   -1.9883 H   0  0  0  0  0  0  0  0  0  0  0  0
   -4.4339   16.4969   -1.0723 H   0  0  0  0  0  0  0  0  0  0  0  0
   -4.8885   14.7832   -0.7826 H   0  0  0  0  0  0  0  0  0  0  0  0
   -4.9571   17.1137    1.1197 H   0  0  0  0  0  0  0  0  0  0  0  0
   -5.8791   15.6030    1.1977 H   0  0  0  0  0  0  0  0  0  0  0  0
   -3.9850   15.5838    2.9851 H   0  0  0  0  0  0  0  0  0  0  0  0
    1.4233   14.0566    0.8181 H   0  0  0  0  0  0  0  0  0  0  0  0
    0.7921   14.1987    2.4369 H   0  0  0  0  0  0  0  0  0  0  0  0
  1  2  1  0  0  0  0
  1  7  2  0  0  0  0
  2  3  2  0  0  0  0
  2  5  1  0  0  0  0
  3  8  1  0  0  0  0
  3  9  1  0  0  0  0
  4  7  1  0  0  0  0
  4  8  2  0  0  0  0
  4 10  1  0  0  0  0
  5  6  1  0  0  0  0
  6  9  1  0  0  0  0
  1 11  1  0  0  0  0
  5 12  1  0  0  0  0
  5 13  1  0  0  0  0
  6 14  1  0  0  0  0
  6 15  1  0  0  0  0
  9 16  1  0  0  0  0
 10 17  1  0  0  0  0
 10 18  1  0  0  0  0
M  END
> <HYBRID receptor title>
5S18(A) > WOY(A-201)

> <HYBRID receptor filename>
5s18.oedu

> <HYBRID Chemgauss4 score>
-6.116392

> <HYBRID receptor title>
5S18(A) > WOY(A-201)

> <HYBRID receptor filename>
5s18.oedu

> <Dock Type>
Hybrid

$$$$
MOL0233_3
  -OEChem-06022418243D

 30 32  0     0  0  0  0  0  0999 V2000
   -8.3836   14.2567    1.1622 C   0  0  0  0  0  0  0  0  0  0  0  0
   -7.3571   13.5566    1.7961 C   0  0  0  0  0  0  0  0  0  0  0  0
   -8.0873   15.1432    0.1268 C   0  0  0  0  0  0  0  0  0  0  0  0
   -6.0343   13.7431    1.3947 C   0  0  0  0  0  0  0  0  0  0  0  0
   -6.7646   15.3297   -0.2746 C   0  0  0  0  0  0  0  0  0  0  0  0
    0.3032   15.1309    0.8190 C   0  0  0  0  0  0  0  0  0  0  0  0
   -5.7380   14.6296    0.3593 C   0  0  0  0  0  0  0  0  0  0  0  0
    0.6518   15.0405   -0.5026 C   0  0  0  0  0  0  0  0  0  0  0  0
   -0.3488   14.7639   -1.4203 C   0  0  0  0  0  0  0  0  0  0  0  0
   -1.8702   14.7072    0.2524 C   0  0  0  0  0  0  0  0  0  0  0  0
   -4.3407   14.8271   -0.0652 C   0  0  0  0  0  0  0  0  0  0  0  0
   -3.2483   14.5301    0.6788 C   0  0  0  0  0  0  0  0  0  0  0  0
    1.9729   15.1453   -1.1752 C   0  0  0  0  0  0  0  0  0  0  0  0
    1.5579   15.1526   -2.6624 C   0  0  0  0  0  0  0  0  0  0  0  0
   -0.9710   14.9703    1.2304 N   0  0  0  0  0  0  0  0  0  0  0  0
   -1.6341   14.5889   -1.0725 N   0  0  0  0  0  0  0  0  0  0  0  0
    0.1804   14.6928   -2.7174 N   0  0  0  0  0  0  0  0  0  0  0  0
   -9.4136   14.1106    1.4739 H   0  0  0  0  0  0  0  0  0  0  0  0
   -7.5877   12.8654    2.6016 H   0  0  0  0  0  0  0  0  0  0  0  0
   -8.8866   15.6875   -0.3676 H   0  0  0  0  0  0  0  0  0  0  0  0
   -5.2450   13.1902    1.8985 H   0  0  0  0  0  0  0  0  0  0  0  0
   -6.5497   16.0242   -1.0833 H   0  0  0  0  0  0  0  0  0  0  0  0
    1.0306   15.3320    1.5960 H   0  0  0  0  0  0  0  0  0  0  0  0
   -4.2163   15.2155   -1.0731 H   0  0  0  0  0  0  0  0  0  0  0  0
   -3.3911   14.0924    1.6735 H   0  0  0  0  0  0  0  0  0  0  0  0
    2.5005   16.0643   -0.9046 H   0  0  0  0  0  0  0  0  0  0  0  0
    2.5892   14.2709   -0.9433 H   0  0  0  0  0  0  0  0  0  0  0  0
    1.6166   16.1712   -3.0645 H   0  0  0  0  0  0  0  0  0  0  0  0
    2.2155   14.5158   -3.2629 H   0  0  0  0  0  0  0  0  0  0  0  0
   -0.3717   14.5669   -3.5514 H   0  0  0  0  0  0  0  0  0  0  0  0
  1  2  1  0  0  0  0
  1  3  2  0  0  0  0
  2  4  2  0  0  0  0
  3  5  1  0  0  0  0
  4  7  1  0  0  0  0
  5  7  2  0  0  0  0
  6  8  1  0  0  0  0
  6 15  2  0  0  0  0
  7 11  1  0  0  0  0
  8  9  2  0  0  0  0
  8 13  1  0  0  0  0
  9 16  1  0  0  0  0
  9 17  1  0  0  0  0
 10 12  1  0  0  0  0
 10 15  1  0  0  0  0
 10 16  2  0  0  0  0
 11 12  2  0  0  0  0
 13 14  1  0  0  0  0
 14 17  1  0  0  0  0
  1 18  1  0  0  0  0
  2 19  1  0  0  0  0
  3 20  1  0  0  0  0
  4 21  1  0  0  0  0
  5 22  1  0  0  0  0
  6 23  1  0  0  0  0
 11 24  1  0  0  0  0
 12 25  1  0  0  0  0
 13 26  1  0  0  0  0
 13 27  1  0  0  0  0
 14 28  1  0  0  0  0
 14 29  1  0  0  0  0
 17 30  1  0  0  0  0
M  END
> <HYBRID receptor title>
5S18(A) > WOY(A-201)

> <HYBRID receptor filename>
5s18.oedu

> <HYBRID Chemgauss4 score>
-6.095674

> <HYBRID receptor title>
5S18(A) > WOY(A-201)

> <HYBRID receptor filename>
5s18.oedu

> <Dock Type>
Hybrid

$$$$
MOL0066_12
  -OEChem-06022418243D

 32 34  0     1  0  0  0  0  0999 V2000
   -5.7752   11.8957   -5.5750 C   0  0  0  0  0  0  0  0  0  0  0  0
   -5.5685   11.1320   -4.4262 C   0  0  0  0  0  0  0  0  0  0  0  0
   -5.0121   13.0420   -5.7971 C   0  0  0  0  0  0  0  0  0  0  0  0
   -4.5987   11.5147   -3.4995 C   0  0  0  0  0  0  0  0  0  0  0  0
   -4.0423   13.4247   -4.8704 C   0  0  0  0  0  0  0  0  0  0  0  0
   -2.2845   14.9774    1.5144 C   0  0  0  0  0  0  0  0  0  0  0  0
   -0.0239   14.8889    1.3189 C   0  0  0  0  0  0  0  0  0  0  0  0
   -2.4369   14.9622    0.1386 C   0  0  0  0  0  0  0  0  0  0  0  0
   -3.8356   12.6610   -3.7216 C   0  0  0  0  0  0  0  0  0  0  0  0
   -1.2613   14.8877   -0.6006 C   0  0  0  0  0  0  0  0  0  0  0  0
   -3.7838   14.9497   -0.5166 C   0  0  0  0  0  0  0  0  0  0  0  0
   -1.3103   14.9074   -2.1091 C   0  0  0  0  0  0  0  0  0  0  0  0
   -3.7035   15.2251   -2.0241 C   0  0  0  0  0  0  0  0  0  0  0  0
   -2.7918   13.0736   -2.7244 C   0  0  0  0  0  0  0  0  0  0  0  0
   -1.0895   14.9458    2.1379 N   0  0  0  0  0  0  0  0  0  0  0  0
   -0.0365   14.8603   -0.0274 N   0  0  0  0  0  0  0  0  0  0  0  0
   -2.6033   14.5224   -2.6979 N   0  0  2  0  0  0  0  0  0  0  0  0
   -6.5294   11.5968   -6.2971 H   0  0  0  0  0  0  0  0  0  0  0  0
   -6.1618   10.2388   -4.2536 H   0  0  0  0  0  0  0  0  0  0  0  0
   -5.1720   13.6362   -6.6919 H   0  0  0  0  0  0  0  0  0  0  0  0
   -4.4447   10.9136   -2.6072 H   0  0  0  0  0  0  0  0  0  0  0  0
   -3.4526   14.3194   -5.0517 H   0  0  0  0  0  0  0  0  0  0  0  0
   -3.1446   15.0135    2.1758 H   0  0  0  0  0  0  0  0  0  0  0  0
    0.9496   14.8644    1.7930 H   0  0  0  0  0  0  0  0  0  0  0  0
   -4.2366   13.9640   -0.3507 H   0  0  0  0  0  0  0  0  0  0  0  0
   -4.4332   15.6999   -0.0517 H   0  0  0  0  0  0  0  0  0  0  0  0
   -1.0206   15.9246   -2.4359 H   0  0  0  0  0  0  0  0  0  0  0  0
   -0.5291   14.2214   -2.4845 H   0  0  0  0  0  0  0  0  0  0  0  0
   -4.6786   14.9329   -2.4739 H   0  0  0  0  0  0  0  0  0  0  0  0
   -3.6234   16.3234   -2.2002 H   0  0  0  0  0  0  0  0  0  0  0  0
   -3.0727   12.7515   -1.7158 H   0  0  0  0  0  0  0  0  0  0  0  0
   -1.8248   12.6143   -2.9550 H   0  0  0  0  0  0  0  0  0  0  0  0
  1  2  1  0  0  0  0
  1  3  2  0  0  0  0
  2  4  2  0  0  0  0
  3  5  1  0  0  0  0
  4  9  1  0  0  0  0
  5  9  2  0  0  0  0
  6  8  1  0  0  0  0
  6 15  2  0  0  0  0
  7 15  1  0  0  0  0
  7 16  2  0  0  0  0
  8 10  2  0  0  0  0
  8 11  1  0  0  0  0
  9 14  1  0  0  0  0
 10 12  1  0  0  0  0
 10 16  1  0  0  0  0
 11 13  1  0  0  0  0
 12 17  1  0  0  0  0
 13 17  1  0  0  0  0
 14 17  1  0  0  0  0
  1 18  1  0  0  0  0
  2 19  1  0  0  0  0
  3 20  1  0  0  0  0
  4 21  1  0  0  0  0
  5 22  1  0  0  0  0
  6 23  1  0  0  0  0
  7 24  1  0  0  0  0
 11 25  1  0  0  0  0
 11 26  1  0  0  0  0
 12 27  1  0  0  0  0
 12 28  1  0  0  0  0
 13 29  1  0  0  0  0
 13 30  1  0  0  0  0
 14 31  1  0  0  0  0
 14 32  1  0  0  0  0
M  END
> <HYBRID receptor title>
5S18(A) > WOY(A-201)

> <HYBRID receptor filename>
5s18.oedu

> <HYBRID Chemgauss4 score>
-6.093857

> <HYBRID receptor title>
5S18(A) > WOY(A-201)

> <HYBRID receptor filename>
5s18.oedu

> <Dock Type>
Hybrid

$$$$
MOL0139_1
  -OEChem-06022418243D

 25 26  0     0  0  0  0  0  0999 V2000
   -0.2526   14.8007    1.0455 C   0  0  0  0  0  0  0  0  0  0  0  0
   -2.5087   15.0198    1.1116 C   0  0  0  0  0  0  0  0  0  0  0  0
   -0.2783   14.5733   -0.3217 C   0  0  0  0  0  0  0  0  0  0  0  0
   -1.5351   14.6125   -0.9220 C   0  0  0  0  0  0  0  0  0  0  0  0
    0.9834   14.3635   -1.1047 C   0  0  0  0  0  0  0  0  0  0  0  0
   -0.3012   14.4927   -3.1282 C   0  0  0  0  0  0  0  0  0  0  0  0
   -1.6744   14.3494   -2.4190 C   0  0  0  0  0  0  0  0  0  0  0  0
   -2.2380   12.9269   -2.6117 C   0  0  0  0  0  0  0  0  0  0  0  0
   -2.6479   15.3586   -3.0588 C   0  0  0  0  0  0  0  0  0  0  0  0
   -1.3509   15.0243    1.7936 N   0  0  0  0  0  0  0  0  0  0  0  0
   -2.6691   14.8229   -0.2105 N   0  0  0  0  0  0  0  0  0  0  0  0
    0.7672   13.7733   -2.4296 N   0  0  0  0  0  0  0  0  0  0  0  0
    0.6832   14.8089    1.5959 H   0  0  0  0  0  0  0  0  0  0  0  0
   -3.4100   15.1937    1.6863 H   0  0  0  0  0  0  0  0  0  0  0  0
    1.4997   15.3230   -1.2401 H   0  0  0  0  0  0  0  0  0  0  0  0
    1.6582   13.7170   -0.5267 H   0  0  0  0  0  0  0  0  0  0  0  0
   -0.3554   14.1348   -4.1709 H   0  0  0  0  0  0  0  0  0  0  0  0
   -0.0215   15.5561   -3.1978 H   0  0  0  0  0  0  0  0  0  0  0  0
   -2.3419   12.7276   -3.6720 H   0  0  0  0  0  0  0  0  0  0  0  0
   -3.2058   12.8608   -2.1283 H   0  0  0  0  0  0  0  0  0  0  0  0
   -1.5549   12.2121   -2.1678 H   0  0  0  0  0  0  0  0  0  0  0  0
   -2.7283   15.1497   -4.1192 H   0  0  0  0  0  0  0  0  0  0  0  0
   -2.2668   16.3620   -2.9090 H   0  0  0  0  0  0  0  0  0  0  0  0
   -3.6197   15.2597   -2.5892 H   0  0  0  0  0  0  0  0  0  0  0  0
    1.6290   13.8207   -2.9695 H   0  0  0  0  0  0  0  0  0  0  0  0
  1  3  1  0  0  0  0
  1 10  2  0  0  0  0
  2 10  1  0  0  0  0
  2 11  2  0  0  0  0
  3  4  2  0  0  0  0
  3  5  1  0  0  0  0
  4  7  1  0  0  0  0
  4 11  1  0  0  0  0
  5 12  1  0  0  0  0
  6  7  1  0  0  0  0
  6 12  1  0  0  0  0
  7  8  1  0  0  0  0
  7  9  1  0  0  0  0
  1 13  1  0  0  0  0
  2 14  1  0  0  0  0
  5 15  1  0  0  0  0
  5 16  1  0  0  0  0
  6 17  1  0  0  0  0
  6 18  1  0  0  0  0
  8 19  1  0  0  0  0
  8 20  1  0  0  0  0
  8 21  1  0  0  0  0
  9 22  1  0  0  0  0
  9 23  1  0  0  0  0
  9 24  1  0  0  0  0
 12 25  1  0  0  0  0
M  END
> <HYBRID receptor title>
5S18(A) > WOY(A-201)

> <HYBRID receptor filename>
5s18.oedu

> <HYBRID Chemgauss4 score>
-6.077675

> <HYBRID receptor title>
5S18(A) > WOY(A-201)

> <HYBRID receptor filename>
5s18.oedu

> <Dock Type>
Hybrid

$$$$
MOL0149_2
  -OEChem-06022418243D

 25 26  0     1  0  0  0  0  0999 V2000
   -1.6423   14.4086   -0.8623 C   0  0  0  0  0  0  0  0  0  0  0  0
   -0.3340   14.8070    0.9674 C   0  0  0  0  0  0  0  0  0  0  0  0
   -2.7633   14.5689   -0.0868 C   0  0  0  0  0  0  0  0  0  0  0  0
   -2.5778   14.8596    1.2564 C   0  0  0  0  0  0  0  0  0  0  0  0
   -4.8563   14.5625    0.9996 C   0  0  0  0  0  0  0  0  0  0  0  0
   -4.2242   14.5154   -0.4269 C   0  0  2  0  0  0  0  0  0  0  0  0
   -4.6078   13.2289   -1.1616 C   0  0  0  0  0  0  0  0  0  0  0  0
   -6.0801   15.7118   -1.5986 C   0  0  0  0  0  0  0  0  0  0  0  0
   -4.6308   15.7443   -1.2491 C   0  0  0  0  0  0  0  0  0  0  0  0
   -0.3983   14.5210   -0.3537 N   0  0  0  0  0  0  0  0  0  0  0  0
   -1.3651   14.9889    1.8199 N   0  0  0  0  0  0  0  0  0  0  0  0
   -3.8095   15.0002    1.9094 N   0  0  0  0  0  0  0  0  0  0  0  0
   -1.6993   14.1886   -1.9215 H   0  0  0  0  0  0  0  0  0  0  0  0
    0.6598   14.9014    1.3888 H   0  0  0  0  0  0  0  0  0  0  0  0
   -5.7187   15.2361    1.0503 H   0  0  0  0  0  0  0  0  0  0  0  0
   -5.1966   13.5683    1.3147 H   0  0  0  0  0  0  0  0  0  0  0  0
   -5.6724   13.2383   -1.3848 H   0  0  0  0  0  0  0  0  0  0  0  0
   -4.3797   12.3685   -0.5364 H   0  0  0  0  0  0  0  0  0  0  0  0
   -4.0467   13.1567   -2.0906 H   0  0  0  0  0  0  0  0  0  0  0  0
   -6.2942   14.8065   -2.1788 H   0  0  0  0  0  0  0  0  0  0  0  0
   -6.3568   16.5788   -2.2078 H   0  0  0  0  0  0  0  0  0  0  0  0
   -6.7010   15.6920   -0.6967 H   0  0  0  0  0  0  0  0  0  0  0  0
   -4.4083   16.6426   -0.6711 H   0  0  0  0  0  0  0  0  0  0  0  0
   -4.0300   15.7718   -2.1595 H   0  0  0  0  0  0  0  0  0  0  0  0
   -3.9118   15.1477    2.9014 H   0  0  0  0  0  0  0  0  0  0  0  0
  1  3  1  0  0  0  0
  1 10  2  0  0  0  0
  2 10  1  0  0  0  0
  2 11  2  0  0  0  0
  3  4  2  0  0  0  0
  3  6  1  0  0  0  0
  4 11  1  0  0  0  0
  4 12  1  0  0  0  0
  5  6  1  0  0  0  0
  5 12  1  0  0  0  0
  6  7  1  0  0  0  0
  6  9  1  0  0  0  0
  8  9  1  0  0  0  0
  1 13  1  0  0  0  0
  2 14  1  0  0  0  0
  5 15  1  0  0  0  0
  5 16  1  0  0  0  0
  7 17  1  0  0  0  0
  7 18  1  0  0  0  0
  7 19  1  0  0  0  0
  8 20  1  0  0  0  0
  8 21  1  0  0  0  0
  8 22  1  0  0  0  0
  9 23  1  0  0  0  0
  9 24  1  0  0  0  0
 12 25  1  0  0  0  0
M  END
> <HYBRID receptor title>
5S18(A) > WOY(A-201)

> <HYBRID receptor filename>
5s18.oedu

> <HYBRID Chemgauss4 score>
-6.072437

> <HYBRID receptor title>
5S18(A) > WOY(A-201)

> <HYBRID receptor filename>
5s18.oedu

> <Dock Type>
Hybrid

$$$$
MOL0157_1
  -OEChem-06022418243D

 21 22  0     0  0  0  0  0  0999 V2000
   -0.1185   15.1999    0.9108 C   0  0  0  0  0  0  0  0  0  0  0  0
   -2.4923   14.8363   -0.2974 C   0  0  0  0  0  0  0  0  0  0  0  0
   -1.2911   14.7433   -0.9928 C   0  0  0  0  0  0  0  0  0  0  0  0
   -2.3837   15.1071    1.0558 C   0  0  0  0  0  0  0  0  0  0  0  0
   -3.8135   14.5837   -0.9614 C   0  0  0  0  0  0  0  0  0  0  0  0
   -1.3056   14.4796   -2.4754 C   0  0  0  0  0  0  0  0  0  0  0  0
   -2.6382   13.8930   -2.9482 C   0  0  0  0  0  0  0  0  0  0  0  0
   -0.0864   14.9328   -0.4087 N   0  0  0  0  0  0  0  0  0  0  0  0
   -1.2099   15.2987    1.6914 N   0  0  0  0  0  0  0  0  0  0  0  0
   -3.7656   14.6720   -2.4277 N   0  0  0  0  0  0  0  0  0  0  0  0
   -3.5663   15.2018    1.8297 N   0  0  0  0  0  0  0  0  0  0  0  0
    0.8381   15.3512    1.3959 H   0  0  0  0  0  0  0  0  0  0  0  0
   -4.1813   13.5807   -0.7099 H   0  0  0  0  0  0  0  0  0  0  0  0
   -4.5506   15.3047   -0.5827 H   0  0  0  0  0  0  0  0  0  0  0  0
   -1.1057   15.4106   -3.0166 H   0  0  0  0  0  0  0  0  0  0  0  0
   -0.4919   13.7806   -2.7024 H   0  0  0  0  0  0  0  0  0  0  0  0
   -2.6818   13.8600   -4.0467 H   0  0  0  0  0  0  0  0  0  0  0  0
   -2.7247   12.8543   -2.6033 H   0  0  0  0  0  0  0  0  0  0  0  0
   -4.6331   14.3032   -2.8140 H   0  0  0  0  0  0  0  0  0  0  0  0
   -4.4488   15.1183    1.3733 H   0  0  0  0  0  0  0  0  0  0  0  0
   -3.4925   15.4432    2.7943 H   0  0  0  0  0  0  0  0  0  0  0  0
  1  8  1  0  0  0  0
  1  9  2  0  0  0  0
  2  3  1  0  0  0  0
  2  4  2  0  0  0  0
  2  5  1  0  0  0  0
  3  6  1  0  0  0  0
  3  8  2  0  0  0  0
  4  9  1  0  0  0  0
  4 11  1  0  0  0  0
  5 10  1  0  0  0  0
  6  7  1  0  0  0  0
  7 10  1  0  0  0  0
  1 12  1  0  0  0  0
  5 13  1  0  0  0  0
  5 14  1  0  0  0  0
  6 15  1  0  0  0  0
  6 16  1  0  0  0  0
  7 17  1  0  0  0  0
  7 18  1  0  0  0  0
 10 19  1  0  0  0  0
 11 20  1  0  0  0  0
 11 21  1  0  0  0  0
M  END
> <HYBRID receptor title>
5S18(A) > WOY(A-201)

> <HYBRID receptor filename>
5s18.oedu

> <HYBRID Chemgauss4 score>
-6.055386

> <HYBRID receptor title>
5S18(A) > WOY(A-201)

> <HYBRID receptor filename>
5s18.oedu

> <Dock Type>
Hybrid

$$$$
MOL0231_5
  -OEChem-06022418243D

 35 37  0     1  0  0  0  0  0999 V2000
   -2.6718   15.1771    1.2489 C   0  0  0  0  0  0  0  0  0  0  0  0
   -0.4126   14.8632    1.1199 C   0  0  0  0  0  0  0  0  0  0  0  0
   -2.7667   14.9628   -0.1015 C   0  0  0  0  0  0  0  0  0  0  0  0
   -1.6012   14.6984   -0.7989 C   0  0  0  0  0  0  0  0  0  0  0  0
   -3.9463   14.9804   -1.0084 C   0  0  0  0  0  0  0  0  0  0  0  0
   -2.2651   11.6193   -6.5976 C   0  0  0  0  0  0  0  0  0  0  0  0
   -2.4842   10.6728   -5.4214 C   0  0  0  0  0  0  0  0  0  0  0  0
   -1.7427   12.9762   -6.1360 C   0  0  0  0  0  0  0  0  0  0  0  0
   -3.3931   11.2918   -4.3619 C   0  0  0  0  0  0  0  0  0  0  0  0
   -2.6502   13.5990   -5.0776 C   0  0  0  0  0  0  0  0  0  0  0  0
   -2.8660   12.6532   -3.8885 C   0  0  0  0  0  0  0  0  0  0  0  0
   -3.3109   14.5885   -2.3703 C   0  0  2  0  0  0  0  0  0  0  0  0
   -3.8187   13.2759   -2.8698 C   0  0  0  0  0  0  0  0  0  0  0  0
   -1.4894   15.1306    1.8956 N   0  0  0  0  0  0  0  0  0  0  0  0
   -0.3940   14.6409   -0.2124 N   0  0  0  0  0  0  0  0  0  0  0  0
   -1.8708   14.5069   -2.1583 N   0  0  0  0  0  0  0  0  0  0  0  0
   -3.5385   15.3945    1.8612 H   0  0  0  0  0  0  0  0  0  0  0  0
    0.5443   14.8234    1.6267 H   0  0  0  0  0  0  0  0  0  0  0  0
   -4.7104   14.2697   -0.6790 H   0  0  0  0  0  0  0  0  0  0  0  0
   -4.3681   15.9898   -1.0552 H   0  0  0  0  0  0  0  0  0  0  0  0
   -1.5563   11.1721   -7.3036 H   0  0  0  0  0  0  0  0  0  0  0  0
   -3.2109   11.7567   -7.1359 H   0  0  0  0  0  0  0  0  0  0  0  0
   -2.9223    9.7347   -5.7808 H   0  0  0  0  0  0  0  0  0  0  0  0
   -1.5167   10.4210   -4.9698 H   0  0  0  0  0  0  0  0  0  0  0  0
   -0.7320   12.8585   -5.7262 H   0  0  0  0  0  0  0  0  0  0  0  0
   -1.6617   13.6510   -6.9958 H   0  0  0  0  0  0  0  0  0  0  0  0
   -4.4031   11.4060   -4.7763 H   0  0  0  0  0  0  0  0  0  0  0  0
   -3.4757   10.6057   -3.5104 H   0  0  0  0  0  0  0  0  0  0  0  0
   -2.2085   14.5411   -4.7313 H   0  0  0  0  0  0  0  0  0  0  0  0
   -3.6160   13.8508   -5.5345 H   0  0  0  0  0  0  0  0  0  0  0  0
   -1.8986   12.4956   -3.3931 H   0  0  0  0  0  0  0  0  0  0  0  0
   -3.5301   15.3617   -3.1160 H   0  0  0  0  0  0  0  0  0  0  0  0
   -4.7981   13.4142   -3.3350 H   0  0  0  0  0  0  0  0  0  0  0  0
   -3.9435   12.5872   -2.0303 H   0  0  0  0  0  0  0  0  0  0  0  0
   -1.1788   14.2829   -2.8561 H   0  0  0  0  0  0  0  0  0  0  0  0
  1  3  1  0  0  0  0
  1 14  2  0  0  0  0
  2 14  1  0  0  0  0
  2 15  2  0  0  0  0
  3  4  2  0  0  0  0
  3  5  1  0  0  0  0
  4 15  1  0  0  0  0
  4 16  1  0  0  0  0
  5 12  1  0  0  0  0
  6  7  1  0  0  0  0
  6  8  1  0  0  0  0
  7  9  1  0  0  0  0
  8 10  1  0  0  0  0
  9 11  1  0  0  0  0
 10 11  1  0  0  0  0
 11 13  1  0  0  0  0
 12 13  1  0  0  0  0
 12 16  1  0  0  0  0
  1 17  1  0  0  0  0
  2 18  1  0  0  0  0
  5 19  1  0  0  0  0
  5 20  1  0  0  0  0
  6 21  1  0  0  0  0
  6 22  1  0  0  0  0
  7 23  1  0  0  0  0
  7 24  1  0  0  0  0
  8 25  1  0  0  0  0
  8 26  1  0  0  0  0
  9 27  1  0  0  0  0
  9 28  1  0  0  0  0
 10 29  1  0  0  0  0
 10 30  1  0  0  0  0
 11 31  1  0  0  0  0
 12 32  1  0  0  0  0
 13 33  1  0  0  0  0
 13 34  1  0  0  0  0
 16 35  1  0  0  0  0
M  END
> <HYBRID receptor title>
5S18(A) > WOY(A-201)

> <HYBRID receptor filename>
5s18.oedu

> <HYBRID Chemgauss4 score>
-6.033557

> <HYBRID receptor title>
5S18(A) > WOY(A-201)

> <HYBRID receptor filename>
5s18.oedu

> <Dock Type>
Hybrid

$$$$
MOL0119_10
  -OEChem-06022418243D

 27 29  0     0  0  0  0  0  0999 V2000
   -6.6696   13.5729   -0.7576 C   0  0  0  0  0  0  0  0  0  0  0  0
   -5.8152   14.4118   -1.4730 C   0  0  0  0  0  0  0  0  0  0  0  0
   -6.5144   13.4312    0.6214 C   0  0  0  0  0  0  0  0  0  0  0  0
   -4.8057   15.1091   -0.8095 C   0  0  0  0  0  0  0  0  0  0  0  0
   -5.5048   14.1285    1.2849 C   0  0  0  0  0  0  0  0  0  0  0  0
    0.3175   14.7010    0.7100 C   0  0  0  0  0  0  0  0  0  0  0  0
    0.2733   14.2991   -0.5988 C   0  0  0  0  0  0  0  0  0  0  0  0
   -4.6504   14.9674    0.5694 C   0  0  0  0  0  0  0  0  0  0  0  0
   -0.9387   14.3876   -1.2645 C   0  0  0  0  0  0  0  0  0  0  0  0
   -1.9037   15.2290    0.6001 C   0  0  0  0  0  0  0  0  0  0  0  0
    1.3192   13.7154   -1.4787 C   0  0  0  0  0  0  0  0  0  0  0  0
    0.6041   13.7214   -2.8472 C   0  0  0  0  0  0  0  0  0  0  0  0
   -0.7721   15.1815    1.3428 N   0  0  0  0  0  0  0  0  0  0  0  0
   -2.0590   14.8523   -0.6879 N   0  0  0  0  0  0  0  0  0  0  0  0
   -0.8102   13.9249   -2.5824 N   0  0  0  0  0  0  0  0  0  0  0  0
   -3.3568   15.8601    1.4190 S   0  0  0  0  0  0  0  0  0  0  0  0
   -7.4555   13.0302   -1.2748 H   0  0  0  0  0  0  0  0  0  0  0  0
   -5.9356   14.5220   -2.5468 H   0  0  0  0  0  0  0  0  0  0  0  0
   -7.1801   12.7779    1.1777 H   0  0  0  0  0  0  0  0  0  0  0  0
   -4.1494   15.7580   -1.3843 H   0  0  0  0  0  0  0  0  0  0  0  0
   -5.3993   14.0050    2.3599 H   0  0  0  0  0  0  0  0  0  0  0  0
    1.2246   14.6504    1.2997 H   0  0  0  0  0  0  0  0  0  0  0  0
    2.2261   14.3264   -1.5007 H   0  0  0  0  0  0  0  0  0  0  0  0
    1.5563   12.6943   -1.1635 H   0  0  0  0  0  0  0  0  0  0  0  0
    0.9799   14.5463   -3.4645 H   0  0  0  0  0  0  0  0  0  0  0  0
    0.7780   12.7878   -3.3919 H   0  0  0  0  0  0  0  0  0  0  0  0
   -1.5456   13.9563   -3.2710 H   0  0  0  0  0  0  0  0  0  0  0  0
  1  2  1  0  0  0  0
  1  3  2  0  0  0  0
  2  4  2  0  0  0  0
  3  5  1  0  0  0  0
  4  8  1  0  0  0  0
  5  8  2  0  0  0  0
  6  7  1  0  0  0  0
  6 13  2  0  0  0  0
  7  9  2  0  0  0  0
  7 11  1  0  0  0  0
  8 16  1  0  0  0  0
  9 14  1  0  0  0  0
  9 15  1  0  0  0  0
 10 13  1  0  0  0  0
 10 14  2  0  0  0  0
 10 16  1  0  0  0  0
 11 12  1  0  0  0  0
 12 15  1  0  0  0  0
  1 17  1  0  0  0  0
  2 18  1  0  0  0  0
  3 19  1  0  0  0  0
  4 20  1  0  0  0  0
  5 21  1  0  0  0  0
  6 22  1  0  0  0  0
 11 23  1  0  0  0  0
 11 24  1  0  0  0  0
 12 25  1  0  0  0  0
 12 26  1  0  0  0  0
 15 27  1  0  0  0  0
M  END
> <HYBRID receptor title>
5S18(A) > WOY(A-201)

> <HYBRID receptor filename>
5s18.oedu

> <HYBRID Chemgauss4 score>
-6.028431

> <HYBRID receptor title>
5S18(A) > WOY(A-201)

> <HYBRID receptor filename>
5s18.oedu

> <Dock Type>
Hybrid

$$$$
MOL0079_1
  -OEChem-06022418243D

 13 14  0     0  0  0  0  0  0999 V2000
   -2.0297   14.7160   -2.2489 C   0  0  0  0  0  0  0  0  0  0  0  0
   -3.0244   15.1026    1.2277 C   0  0  0  0  0  0  0  0  0  0  0  0
   -3.3522   14.8542   -2.6034 C   0  0  0  0  0  0  0  0  0  0  0  0
   -0.7453   14.8121    1.1457 C   0  0  0  0  0  0  0  0  0  0  0  0
   -1.8363   14.7985   -0.8374 C   0  0  0  0  0  0  0  0  0  0  0  0
   -3.0374   14.9996   -0.1584 C   0  0  0  0  0  0  0  0  0  0  0  0
   -1.8524   15.0061    1.8860 N   0  0  0  0  0  0  0  0  0  0  0  0
   -0.6451   14.6988   -0.1893 N   0  0  0  0  0  0  0  0  0  0  0  0
   -4.3633   15.0828   -1.2448 S   0  0  0  0  0  0  0  0  0  0  0  0
   -1.2356   14.5630   -2.9686 H   0  0  0  0  0  0  0  0  0  0  0  0
   -3.9145   15.2583    1.8235 H   0  0  0  0  0  0  0  0  0  0  0  0
   -3.7727   14.8309   -3.5988 H   0  0  0  0  0  0  0  0  0  0  0  0
    0.1848   14.7377    1.6980 H   0  0  0  0  0  0  0  0  0  0  0  0
  1  3  2  0  0  0  0
  1  5  1  0  0  0  0
  2  6  1  0  0  0  0
  2  7  2  0  0  0  0
  3  9  1  0  0  0  0
  4  7  1  0  0  0  0
  4  8  2  0  0  0  0
  5  6  2  0  0  0  0
  5  8  1  0  0  0  0
  6  9  1  0  0  0  0
  1 10  1  0  0  0  0
  2 11  1  0  0  0  0
  3 12  1  0  0  0  0
  4 13  1  0  0  0  0
M  END
> <HYBRID receptor title>
5S18(A) > WOY(A-201)

> <HYBRID receptor filename>
5s18.oedu

> <HYBRID Chemgauss4 score>
-6.027247

> <HYBRID receptor title>
5S18(A) > WOY(A-201)

> <HYBRID receptor filename>
5s18.oedu

> <Dock Type>
Hybrid

$$$$
MOL0158_1
  -OEChem-06022418243D

 19 20  0     0  0  0  0  0  0999 V2000
   -3.4478   15.2314    1.4762 C   0  0  0  0  0  0  0  0  0  0  0  0
   -3.7851   15.1778    0.1346 C   0  0  0  0  0  0  0  0  0  0  0  0
   -2.7263   14.9852   -0.7468 C   0  0  0  0  0  0  0  0  0  0  0  0
   -1.2451   14.9640    0.9888 C   0  0  0  0  0  0  0  0  0  0  0  0
   -5.2070   15.2466   -0.3383 C   0  0  0  0  0  0  0  0  0  0  0  0
   -2.9880   14.9411   -2.2292 C   0  0  0  0  0  0  0  0  0  0  0  0
   -4.4577   14.6587   -2.5516 C   0  0  0  0  0  0  0  0  0  0  0  0
   -2.1845   15.1319    1.9374 N   0  0  0  0  0  0  0  0  0  0  0  0
   -1.4403   14.8857   -0.3412 N   0  0  0  0  0  0  0  0  0  0  0  0
   -5.3403   15.5332   -1.7737 N   0  0  0  0  0  0  0  0  0  0  0  0
    0.0254   14.8623    1.4145 F   0  0  0  0  0  0  0  0  0  0  0  0
   -4.2052   15.3621    2.2426 H   0  0  0  0  0  0  0  0  0  0  0  0
   -5.7107   14.2927   -0.1347 H   0  0  0  0  0  0  0  0  0  0  0  0
   -5.7374   16.0192    0.2346 H   0  0  0  0  0  0  0  0  0  0  0  0
   -2.6928   15.8929   -2.6836 H   0  0  0  0  0  0  0  0  0  0  0  0
   -2.3568   14.1554   -2.6610 H   0  0  0  0  0  0  0  0  0  0  0  0
   -4.6535   14.7901   -3.6259 H   0  0  0  0  0  0  0  0  0  0  0  0
   -4.6895   13.6109   -2.3203 H   0  0  0  0  0  0  0  0  0  0  0  0
   -6.3051   15.3731   -2.0586 H   0  0  0  0  0  0  0  0  0  0  0  0
  1  2  1  0  0  0  0
  1  8  2  0  0  0  0
  2  3  2  0  0  0  0
  2  5  1  0  0  0  0
  3  6  1  0  0  0  0
  3  9  1  0  0  0  0
  4  8  1  0  0  0  0
  4  9  2  0  0  0  0
  4 11  1  0  0  0  0
  5 10  1  0  0  0  0
  6  7  1  0  0  0  0
  7 10  1  0  0  0  0
  1 12  1  0  0  0  0
  5 13  1  0  0  0  0
  5 14  1  0  0  0  0
  6 15  1  0  0  0  0
  6 16  1  0  0  0  0
  7 17  1  0  0  0  0
  7 18  1  0  0  0  0
 10 19  1  0  0  0  0
M  END
> <HYBRID receptor title>
5S18(A) > WOY(A-201)

> <HYBRID receptor filename>
5s18.oedu

> <HYBRID Chemgauss4 score>
-6.025598

> <HYBRID receptor title>
5S18(A) > WOY(A-201)

> <HYBRID receptor filename>
5s18.oedu

> <Dock Type>
Hybrid

$$$$
MOL0070_1
  -OEChem-06022418243D

 21 22  0     1  0  0  0  0  0999 V2000
   -0.7172   14.5946   -0.7552 C   0  0  0  0  0  0  0  0  0  0  0  0
    0.0538   14.8618    1.3580 C   0  0  0  0  0  0  0  0  0  0  0  0
   -2.0330   14.6412   -0.3226 C   0  0  0  0  0  0  0  0  0  0  0  0
   -2.2205   14.8480    1.0463 C   0  0  0  0  0  0  0  0  0  0  0  0
   -4.6075   15.1947    0.6216 C   0  0  0  0  0  0  0  0  0  0  0  0
   -4.4359   14.3595   -0.6530 C   0  0  1  0  0  0  0  0  0  0  0  0
   -5.4692   14.7509   -1.7038 C   0  0  0  0  0  0  0  0  0  0  0  0
    0.3513   14.6977    0.0592 N   0  0  0  0  0  0  0  0  0  0  0  0
   -1.1751   14.9423    1.9024 N   0  0  0  0  0  0  0  0  0  0  0  0
   -3.0980   14.5386   -1.2001 N   0  0  0  0  0  0  0  0  0  0  0  0
   -3.5160   14.9519    1.5453 N   0  0  0  0  0  0  0  0  0  0  0  0
   -0.4750   14.4606   -1.8054 H   0  0  0  0  0  0  0  0  0  0  0  0
    0.8904   14.9404    2.0412 H   0  0  0  0  0  0  0  0  0  0  0  0
   -4.6430   16.2651    0.3817 H   0  0  0  0  0  0  0  0  0  0  0  0
   -5.5548   14.9441    1.1118 H   0  0  0  0  0  0  0  0  0  0  0  0
   -4.5734   13.2984   -0.4074 H   0  0  0  0  0  0  0  0  0  0  0  0
   -5.3534   15.8023   -1.9653 H   0  0  0  0  0  0  0  0  0  0  0  0
   -6.4741   14.5910   -1.3142 H   0  0  0  0  0  0  0  0  0  0  0  0
   -5.3354   14.1457   -2.5999 H   0  0  0  0  0  0  0  0  0  0  0  0
   -2.9152   14.2851   -2.1638 H   0  0  0  0  0  0  0  0  0  0  0  0
   -3.6390   15.1245    2.5352 H   0  0  0  0  0  0  0  0  0  0  0  0
  1  3  1  0  0  0  0
  1  8  2  0  0  0  0
  2  8  1  0  0  0  0
  2  9  2  0  0  0  0
  3  4  2  0  0  0  0
  3 10  1  0  0  0  0
  4  9  1  0  0  0  0
  4 11  1  0  0  0  0
  5  6  1  0  0  0  0
  5 11  1  0  0  0  0
  6  7  1  0  0  0  0
  6 10  1  0  0  0  0
  1 12  1  0  0  0  0
  2 13  1  0  0  0  0
  5 14  1  0  0  0  0
  5 15  1  0  0  0  0
  6 16  1  0  0  0  0
  7 17  1  0  0  0  0
  7 18  1  0  0  0  0
  7 19  1  0  0  0  0
 10 20  1  0  0  0  0
 11 21  1  0  0  0  0
M  END
> <HYBRID receptor title>
5S18(A) > WOY(A-201)

> <HYBRID receptor filename>
5s18.oedu

> <HYBRID Chemgauss4 score>
-6.022528

> <HYBRID receptor title>
5S18(A) > WOY(A-201)

> <HYBRID receptor filename>
5s18.oedu

> <Dock Type>
Hybrid

$$$$
MOL0137_3
  -OEChem-06022418243D

 28 30  0     1  0  0  0  0  0999 V2000
   -0.6892   14.4521   -0.9431 C   0  0  0  0  0  0  0  0  0  0  0  0
    0.1053   14.5546    1.1755 C   0  0  0  0  0  0  0  0  0  0  0  0
   -1.9987   14.5370   -0.4974 C   0  0  0  0  0  0  0  0  0  0  0  0
   -2.1690   14.6681    0.8829 C   0  0  0  0  0  0  0  0  0  0  0  0
   -7.5968   13.5749    1.1504 C   0  0  0  0  0  0  0  0  0  0  0  0
   -6.1215   13.3405    1.5360 C   0  0  0  0  0  0  0  0  0  0  0  0
   -7.1027   14.7142    0.2349 C   0  0  0  0  0  0  0  0  0  0  0  0
   -4.4048   14.3711   -0.8198 C   0  0  0  0  0  0  0  0  0  0  0  0
   -5.8659   14.8243    1.1640 C   0  0  0  0  0  0  0  0  0  0  0  0
   -4.5526   15.1365    0.5022 C   0  0  1  0  0  0  0  0  0  0  0  0
    0.3875   14.4545   -0.1331 N   0  0  0  0  0  0  0  0  0  0  0  0
   -1.1153   14.6614    1.7341 N   0  0  0  0  0  0  0  0  0  0  0  0
   -3.0724   14.5379   -1.3684 N   0  0  0  0  0  0  0  0  0  0  0  0
   -3.4548   14.8058    1.4000 N   0  0  0  0  0  0  0  0  0  0  0  0
   -0.4598   14.3695   -2.0014 H   0  0  0  0  0  0  0  0  0  0  0  0
    0.9481   14.5493    1.8558 H   0  0  0  0  0  0  0  0  0  0  0  0
   -8.0959   12.7428    0.6480 H   0  0  0  0  0  0  0  0  0  0  0  0
   -8.2212   13.9175    1.9835 H   0  0  0  0  0  0  0  0  0  0  0  0
   -5.9431   13.0754    2.5813 H   0  0  0  0  0  0  0  0  0  0  0  0
   -5.6110   12.6147    0.8921 H   0  0  0  0  0  0  0  0  0  0  0  0
   -6.8776   14.3874   -0.7871 H   0  0  0  0  0  0  0  0  0  0  0  0
   -7.7439   15.5984    0.1921 H   0  0  0  0  0  0  0  0  0  0  0  0
   -4.6029   13.3017   -0.6720 H   0  0  0  0  0  0  0  0  0  0  0  0
   -5.1426   14.7298   -1.5466 H   0  0  0  0  0  0  0  0  0  0  0  0
   -6.0514   15.4974    2.0150 H   0  0  0  0  0  0  0  0  0  0  0  0
   -4.5066   16.2208    0.2957 H   0  0  0  0  0  0  0  0  0  0  0  0
   -2.9148   14.3677   -2.3542 H   0  0  0  0  0  0  0  0  0  0  0  0
   -3.5547   14.9341    2.3997 H   0  0  0  0  0  0  0  0  0  0  0  0
  1  3  1  0  0  0  0
  1 11  2  0  0  0  0
  2 11  1  0  0  0  0
  2 12  2  0  0  0  0
  3  4  2  0  0  0  0
  3 13  1  0  0  0  0
  4 12  1  0  0  0  0
  4 14  1  0  0  0  0
  5  6  1  0  0  0  0
  5  7  1  0  0  0  0
  6  9  1  0  0  0  0
  7  9  1  0  0  0  0
  8 10  1  0  0  0  0
  8 13  1  0  0  0  0
  9 10  1  0  0  0  0
 10 14  1  0  0  0  0
  1 15  1  0  0  0  0
  2 16  1  0  0  0  0
  5 17  1  0  0  0  0
  5 18  1  0  0  0  0
  6 19  1  0  0  0  0
  6 20  1  0  0  0  0
  7 21  1  0  0  0  0
  7 22  1  0  0  0  0
  8 23  1  0  0  0  0
  8 24  1  0  0  0  0
  9 25  1  0  0  0  0
 10 26  1  0  0  0  0
 13 27  1  0  0  0  0
 14 28  1  0  0  0  0
M  END
> <HYBRID receptor title>
5S18(A) > WOY(A-201)

> <HYBRID receptor filename>
5s18.oedu

> <HYBRID Chemgauss4 score>
-6.017581

> <HYBRID receptor title>
5S18(A) > WOY(A-201)

> <HYBRID receptor filename>
5s18.oedu

> <Dock Type>
Hybrid

$$$$
MOL0005_1
  -OEChem-06022418243D

 19 20  0     1  0  0  0  0  0999 V2000
   -2.4871   15.4212    1.1215 C   0  0  0  0  0  0  0  0  0  0  0  0
   -0.2949   14.8179    0.9018 C   0  0  0  0  0  0  0  0  0  0  0  0
   -2.6660   15.2101   -0.2204 C   0  0  0  0  0  0  0  0  0  0  0  0
   -1.5726   14.8000   -0.9707 C   0  0  0  0  0  0  0  0  0  0  0  0
   -3.8656   15.3781   -1.0818 C   0  0  0  0  0  0  0  0  0  0  0  0
   -3.3961   14.6736   -2.3711 C   0  0  0  0  0  0  0  0  0  0  0  0
   -1.1247   13.9083   -3.2473 C   0  0  0  0  0  0  0  0  0  0  0  0
   -1.2942   15.2263    1.7186 N   0  0  0  0  0  0  0  0  0  0  0  0
   -0.3600   14.5902   -0.4283 N   0  0  0  0  0  0  0  0  0  0  0  0
   -1.9367   14.6550   -2.3224 N   0  0  2  0  0  0  0  0  0  0  0  0
   -3.2911   15.7543    1.7664 H   0  0  0  0  0  0  0  0  0  0  0  0
    0.6694   14.6573    1.3691 H   0  0  0  0  0  0  0  0  0  0  0  0
   -4.7510   14.8930   -0.6617 H   0  0  0  0  0  0  0  0  0  0  0  0
   -4.0608   16.4404   -1.2599 H   0  0  0  0  0  0  0  0  0  0  0  0
   -3.7779   13.6444   -2.3922 H   0  0  0  0  0  0  0  0  0  0  0  0
   -3.7655   15.1882   -3.2644 H   0  0  0  0  0  0  0  0  0  0  0  0
   -1.5931   13.9238   -4.2425 H   0  0  0  0  0  0  0  0  0  0  0  0
   -0.1244   14.3621   -3.3059 H   0  0  0  0  0  0  0  0  0  0  0  0
   -1.0358   12.8683   -2.9002 H   0  0  0  0  0  0  0  0  0  0  0  0
  1  3  1  0  0  0  0
  1  8  2  0  0  0  0
  2  8  1  0  0  0  0
  2  9  2  0  0  0  0
  3  4  2  0  0  0  0
  3  5  1  0  0  0  0
  4  9  1  0  0  0  0
  4 10  1  0  0  0  0
  5  6  1  0  0  0  0
  6 10  1  0  0  0  0
  7 10  1  0  0  0  0
  1 11  1  0  0  0  0
  2 12  1  0  0  0  0
  5 13  1  0  0  0  0
  5 14  1  0  0  0  0
  6 15  1  0  0  0  0
  6 16  1  0  0  0  0
  7 17  1  0  0  0  0
  7 18  1  0  0  0  0
  7 19  1  0  0  0  0
M  END
> <HYBRID receptor title>
5S18(A) > WOY(A-201)

> <HYBRID receptor filename>
5s18.oedu

> <HYBRID Chemgauss4 score>
-6.004629

> <HYBRID receptor title>
5S18(A) > WOY(A-201)

> <HYBRID receptor filename>
5s18.oedu

> <Dock Type>
Hybrid

$$$$
MOL0046_2
  -OEChem-06022418243D

 22 23  0     0  0  0  0  0  0999 V2000
   -2.5588   15.0498    1.3680 C   0  0  0  0  0  0  0  0  0  0  0  0
   -0.3555   14.6137    1.0650 C   0  0  0  0  0  0  0  0  0  0  0  0
   -2.7870   15.0758   -0.0011 C   0  0  0  0  0  0  0  0  0  0  0  0
   -1.6682   14.8546   -0.7974 C   0  0  0  0  0  0  0  0  0  0  0  0
   -4.1525   15.3425   -0.5594 C   0  0  0  0  0  0  0  0  0  0  0  0
   -1.7591   14.8777   -2.2995 C   0  0  0  0  0  0  0  0  0  0  0  0
   -4.6751   14.2120   -1.4488 C   0  0  0  0  0  0  0  0  0  0  0  0
   -2.7141   13.8266   -2.8664 C   0  0  0  0  0  0  0  0  0  0  0  0
   -1.3572   14.8201    1.9346 N   0  0  0  0  0  0  0  0  0  0  0  0
   -0.4389   14.6186   -0.2779 N   0  0  0  0  0  0  0  0  0  0  0  0
   -4.1214   14.2242   -2.8035 N   0  0  0  0  0  0  0  0  0  0  0  0
   -3.3637   15.2217    2.0764 H   0  0  0  0  0  0  0  0  0  0  0  0
    0.6228   14.4218    1.4881 H   0  0  0  0  0  0  0  0  0  0  0  0
   -4.8491   15.5558    0.2615 H   0  0  0  0  0  0  0  0  0  0  0  0
   -4.1215   16.2572   -1.1661 H   0  0  0  0  0  0  0  0  0  0  0  0
   -2.1215   15.8665   -2.6100 H   0  0  0  0  0  0  0  0  0  0  0  0
   -0.7545   14.7787   -2.7299 H   0  0  0  0  0  0  0  0  0  0  0  0
   -4.3702   13.2609   -0.9963 H   0  0  0  0  0  0  0  0  0  0  0  0
   -5.7719   14.1973   -1.4785 H   0  0  0  0  0  0  0  0  0  0  0  0
   -2.4369   13.5369   -3.8876 H   0  0  0  0  0  0  0  0  0  0  0  0
   -2.6191   12.9213   -2.2553 H   0  0  0  0  0  0  0  0  0  0  0  0
   -4.6768   13.6177   -3.4064 H   0  0  0  0  0  0  0  0  0  0  0  0
  1  3  1  0  0  0  0
  1  9  2  0  0  0  0
  2  9  1  0  0  0  0
  2 10  2  0  0  0  0
  3  4  2  0  0  0  0
  3  5  1  0  0  0  0
  4  6  1  0  0  0  0
  4 10  1  0  0  0  0
  5  7  1  0  0  0  0
  6  8  1  0  0  0  0
  7 11  1  0  0  0  0
  8 11  1  0  0  0  0
  1 12  1  0  0  0  0
  2 13  1  0  0  0  0
  5 14  1  0  0  0  0
  5 15  1  0  0  0  0
  6 16  1  0  0  0  0
  6 17  1  0  0  0  0
  7 18  1  0  0  0  0
  7 19  1  0  0  0  0
  8 20  1  0  0  0  0
  8 21  1  0  0  0  0
 11 22  1  0  0  0  0
M  END
> <HYBRID receptor title>
5S18(A) > WOY(A-201)

> <HYBRID receptor filename>
5s18.oedu

> <HYBRID Chemgauss4 score>
-5.997286

> <HYBRID receptor title>
5S18(A) > WOY(A-201)

> <HYBRID receptor filename>
5s18.oedu

> <Dock Type>
Hybrid

$$$$
MOL0093_1
  -OEChem-06022418243D

 20 21  0     0  0  0  0  0  0999 V2000
   -2.7087   14.9012   -0.9334 C   0  0  0  0  0  0  0  0  0  0  0  0
   -3.7616   15.1082   -0.0820 C   0  0  0  0  0  0  0  0  0  0  0  0
   -3.4794   15.3477    1.2532 C   0  0  0  0  0  0  0  0  0  0  0  0
   -1.2662   15.1826    0.8172 C   0  0  0  0  0  0  0  0  0  0  0  0
   -5.2290   15.0827   -0.3167 C   0  0  0  0  0  0  0  0  0  0  0  0
   -5.7626   15.6082    1.0336 C   0  0  0  0  0  0  0  0  0  0  0  0
    0.1415   15.2239    1.3094 C   0  0  0  0  0  0  0  0  0  0  0  0
   -1.4306   14.9376   -0.5046 N   0  0  0  0  0  0  0  0  0  0  0  0
   -2.2291   15.3912    1.7415 N   0  0  0  0  0  0  0  0  0  0  0  0
   -4.6650   15.5229    1.9821 N   0  0  0  0  0  0  0  0  0  0  0  0
    0.6532   13.8993    1.3879 O   0  0  0  0  0  0  0  0  0  0  0  0
   -2.8495   14.6957   -1.9874 H   0  0  0  0  0  0  0  0  0  0  0  0
   -5.5251   15.7354   -1.1427 H   0  0  0  0  0  0  0  0  0  0  0  0
   -5.5682   14.0587   -0.5009 H   0  0  0  0  0  0  0  0  0  0  0  0
   -6.0742   16.6547    0.9330 H   0  0  0  0  0  0  0  0  0  0  0  0
   -6.6282   15.0303    1.3722 H   0  0  0  0  0  0  0  0  0  0  0  0
    0.7837   15.8092    0.6373 H   0  0  0  0  0  0  0  0  0  0  0  0
    0.2001   15.6848    2.3047 H   0  0  0  0  0  0  0  0  0  0  0  0
   -4.7018   15.7719    2.9583 H   0  0  0  0  0  0  0  0  0  0  0  0
    1.5658   13.9712    1.7103 H   0  0  0  0  0  0  0  0  0  0  0  0
  1  2  1  0  0  0  0
  1  8  2  0  0  0  0
  2  3  2  0  0  0  0
  2  5  1  0  0  0  0
  3  9  1  0  0  0  0
  3 10  1  0  0  0  0
  4  7  1  0  0  0  0
  4  8  1  0  0  0  0
  4  9  2  0  0  0  0
  5  6  1  0  0  0  0
  6 10  1  0  0  0  0
  7 11  1  0  0  0  0
  1 12  1  0  0  0  0
  5 13  1  0  0  0  0
  5 14  1  0  0  0  0
  6 15  1  0  0  0  0
  6 16  1  0  0  0  0
  7 17  1  0  0  0  0
  7 18  1  0  0  0  0
 10 19  1  0  0  0  0
 11 20  1  0  0  0  0
M  END
> <HYBRID receptor title>
5S18(A) > WOY(A-201)

> <HYBRID receptor filename>
5s18.oedu

> <HYBRID Chemgauss4 score>
-5.979663

> <HYBRID receptor title>
5S18(A) > WOY(A-201)

> <HYBRID receptor filename>
5s18.oedu

> <Dock Type>
Hybrid

$$$$
MOL0014_1
  -OEChem-06022418243D

 19 20  0     1  0  0  0  0  0999 V2000
   -1.5756   14.6341   -0.8947 C   0  0  0  0  0  0  0  0  0  0  0  0
   -0.2819   14.8080    0.9802 C   0  0  0  0  0  0  0  0  0  0  0  0
   -2.6887   14.8848   -0.1354 C   0  0  0  0  0  0  0  0  0  0  0  0
   -2.5141   15.0913    1.2216 C   0  0  0  0  0  0  0  0  0  0  0  0
   -4.1260   14.9623   -0.5128 C   0  0  0  0  0  0  0  0  0  0  0  0
   -4.7928   15.3445    0.8368 C   0  0  2  0  0  0  0  0  0  0  0  0
   -5.4360   16.7257    0.7874 C   0  0  0  0  0  0  0  0  0  0  0  0
   -0.3406   14.5912   -0.3549 N   0  0  0  0  0  0  0  0  0  0  0  0
   -1.3110   15.0592    1.8183 N   0  0  0  0  0  0  0  0  0  0  0  0
   -3.7423   15.3305    1.8476 N   0  0  0  0  0  0  0  0  0  0  0  0
   -1.6325   14.4576   -1.9619 H   0  0  0  0  0  0  0  0  0  0  0  0
    0.7046   14.7758    1.4273 H   0  0  0  0  0  0  0  0  0  0  0  0
   -4.2915   15.7119   -1.2926 H   0  0  0  0  0  0  0  0  0  0  0  0
   -4.4775   13.9828   -0.8534 H   0  0  0  0  0  0  0  0  0  0  0  0
   -5.5597   14.6040    1.0925 H   0  0  0  0  0  0  0  0  0  0  0  0
   -4.6873   17.4759    0.5342 H   0  0  0  0  0  0  0  0  0  0  0  0
   -5.8681   16.9697    1.7575 H   0  0  0  0  0  0  0  0  0  0  0  0
   -6.2235   16.7425    0.0342 H   0  0  0  0  0  0  0  0  0  0  0  0
   -3.8591   15.5265    2.8294 H   0  0  0  0  0  0  0  0  0  0  0  0
  1  3  1  0  0  0  0
  1  8  2  0  0  0  0
  2  8  1  0  0  0  0
  2  9  2  0  0  0  0
  3  4  2  0  0  0  0
  3  5  1  0  0  0  0
  4  9  1  0  0  0  0
  4 10  1  0  0  0  0
  5  6  1  0  0  0  0
  6  7  1  0  0  0  0
  6 10  1  0  0  0  0
  1 11  1  0  0  0  0
  2 12  1  0  0  0  0
  5 13  1  0  0  0  0
  5 14  1  0  0  0  0
  6 15  1  0  0  0  0
  7 16  1  0  0  0  0
  7 17  1  0  0  0  0
  7 18  1  0  0  0  0
 10 19  1  0  0  0  0
M  END
> <HYBRID receptor title>
5S18(A) > WOY(A-201)

> <HYBRID receptor filename>
5s18.oedu

> <HYBRID Chemgauss4 score>
-5.958563

> <HYBRID receptor title>
5S18(A) > WOY(A-201)

> <HYBRID receptor filename>
5s18.oedu

> <Dock Type>
Hybrid

$$$$
MOL0020_1
  -OEChem-06022418243D

 21 22  0     1  0  0  0  0  0999 V2000
   -0.8862   14.3288   -0.8714 C   0  0  0  0  0  0  0  0  0  0  0  0
    0.2313   14.5495    1.0865 C   0  0  0  0  0  0  0  0  0  0  0  0
   -2.0927   14.6357   -0.2623 C   0  0  0  0  0  0  0  0  0  0  0  0
   -2.0312   14.9378    1.1003 C   0  0  0  0  0  0  0  0  0  0  0  0
   -4.3573   15.6962    0.9916 C   0  0  0  0  0  0  0  0  0  0  0  0
   -4.5297   14.7843   -0.2293 C   0  0  1  0  0  0  0  0  0  0  0  0
   -5.6263   15.3083   -1.1501 C   0  0  0  0  0  0  0  0  0  0  0  0
    0.2950   14.2730   -0.2256 N   0  0  0  0  0  0  0  0  0  0  0  0
   -0.8677   14.8793    1.7914 N   0  0  0  0  0  0  0  0  0  0  0  0
   -3.2800   14.6888   -0.9711 N   0  0  0  0  0  0  0  0  0  0  0  0
   -3.1975   15.3011    1.7679 N   0  0  0  0  0  0  0  0  0  0  0  0
   -0.8332   14.1035   -1.9325 H   0  0  0  0  0  0  0  0  0  0  0  0
    1.1628   14.5055    1.6373 H   0  0  0  0  0  0  0  0  0  0  0  0
   -4.2410   16.7422    0.6803 H   0  0  0  0  0  0  0  0  0  0  0  0
   -5.2484   15.6477    1.6274 H   0  0  0  0  0  0  0  0  0  0  0  0
   -4.8114   13.7792    0.1110 H   0  0  0  0  0  0  0  0  0  0  0  0
   -5.3699   16.3071   -1.5023 H   0  0  0  0  0  0  0  0  0  0  0  0
   -6.5727   15.3541   -0.6122 H   0  0  0  0  0  0  0  0  0  0  0  0
   -5.7378   14.6470   -2.0089 H   0  0  0  0  0  0  0  0  0  0  0  0
   -3.2927   14.3610   -1.9299 H   0  0  0  0  0  0  0  0  0  0  0  0
   -3.1371   15.5394    2.7499 H   0  0  0  0  0  0  0  0  0  0  0  0
  1  3  1  0  0  0  0
  1  8  2  0  0  0  0
  2  8  1  0  0  0  0
  2  9  2  0  0  0  0
  3  4  2  0  0  0  0
  3 10  1  0  0  0  0
  4  9  1  0  0  0  0
  4 11  1  0  0  0  0
  5  6  1  0  0  0  0
  5 11  1  0  0  0  0
  6  7  1  0  0  0  0
  6 10  1  0  0  0  0
  1 12  1  0  0  0  0
  2 13  1  0  0  0  0
  5 14  1  0  0  0  0
  5 15  1  0  0  0  0
  6 16  1  0  0  0  0
  7 17  1  0  0  0  0
  7 18  1  0  0  0  0
  7 19  1  0  0  0  0
 10 20  1  0  0  0  0
 11 21  1  0  0  0  0
M  END
> <HYBRID receptor title>
5S18(A) > WOY(A-201)

> <HYBRID receptor filename>
5s18.oedu

> <HYBRID Chemgauss4 score>
-5.956393

> <HYBRID receptor title>
5S18(A) > WOY(A-201)

> <HYBRID receptor filename>
5s18.oedu

> <Dock Type>
Hybrid

$$$$
MOL0195_1
  -OEChem-06022418243D

 22 23  0     1  0  0  0  0  0999 V2000
   -3.1068   15.0082    1.3929 C   0  0  0  0  0  0  0  0  0  0  0  0
   -0.9945   14.7679    0.6013 C   0  0  0  0  0  0  0  0  0  0  0  0
   -3.6373   14.8193    0.1275 C   0  0  0  0  0  0  0  0  0  0  0  0
   -2.7172   14.6290   -0.9001 C   0  0  0  0  0  0  0  0  0  0  0  0
   -5.1112   14.8760   -0.1332 C   0  0  0  0  0  0  0  0  0  0  0  0
   -5.4766   14.2671   -1.4870 C   0  0  0  0  0  0  0  0  0  0  0  0
   -3.2053   14.3708   -2.3146 C   0  0  2  0  0  0  0  0  0  0  0  0
   -2.3394   15.0843   -3.3567 C   0  0  0  0  0  0  0  0  0  0  0  0
   -1.7870   14.9867    1.6650 N   0  0  0  0  0  0  0  0  0  0  0  0
   -1.3832   14.5798   -0.6743 N   0  0  0  0  0  0  0  0  0  0  0  0
   -4.5999   14.7983   -2.5297 N   0  0  0  0  0  0  0  0  0  0  0  0
   -3.7474   15.1860    2.2509 H   0  0  0  0  0  0  0  0  0  0  0  0
    0.0717   14.7386    0.7896 H   0  0  0  0  0  0  0  0  0  0  0  0
   -5.6532   14.3414    0.6556 H   0  0  0  0  0  0  0  0  0  0  0  0
   -5.4268   15.9266   -0.1039 H   0  0  0  0  0  0  0  0  0  0  0  0
   -5.4073   13.1723   -1.4535 H   0  0  0  0  0  0  0  0  0  0  0  0
   -6.5173   14.5145   -1.7236 H   0  0  0  0  0  0  0  0  0  0  0  0
   -3.1382   13.2890   -2.4904 H   0  0  0  0  0  0  0  0  0  0  0  0
   -2.3915   16.1592   -3.2005 H   0  0  0  0  0  0  0  0  0  0  0  0
   -2.7002   14.8479   -4.3548 H   0  0  0  0  0  0  0  0  0  0  0  0
   -1.3071   14.7562   -3.2600 H   0  0  0  0  0  0  0  0  0  0  0  0
   -4.9160   14.4678   -3.4412 H   0  0  0  0  0  0  0  0  0  0  0  0
  1  3  1  0  0  0  0
  1  9  2  0  0  0  0
  2  9  1  0  0  0  0
  2 10  2  0  0  0  0
  3  4  2  0  0  0  0
  3  5  1  0  0  0  0
  4  7  1  0  0  0  0
  4 10  1  0  0  0  0
  5  6  1  0  0  0  0
  6 11  1  0  0  0  0
  7  8  1  0  0  0  0
  7 11  1  0  0  0  0
  1 12  1  0  0  0  0
  2 13  1  0  0  0  0
  5 14  1  0  0  0  0
  5 15  1  0  0  0  0
  6 16  1  0  0  0  0
  6 17  1  0  0  0  0
  7 18  1  0  0  0  0
  8 19  1  0  0  0  0
  8 20  1  0  0  0  0
  8 21  1  0  0  0  0
 11 22  1  0  0  0  0
M  END
> <HYBRID receptor title>
5S18(A) > WOY(A-201)

> <HYBRID receptor filename>
5s18.oedu

> <HYBRID Chemgauss4 score>
-5.945731

> <HYBRID receptor title>
5S18(A) > WOY(A-201)

> <HYBRID receptor filename>
5s18.oedu

> <Dock Type>
Hybrid

$$$$
MOL0074_1
  -OEChem-06022418243D

 12 13  0     0  0  0  0  0  0999 V2000
   -2.1900   15.1598    1.2538 C   0  0  0  0  0  0  0  0  0  0  0  0
    0.0615   14.7161    1.0681 C   0  0  0  0  0  0  0  0  0  0  0  0
   -2.5756   14.7657   -2.5056 C   0  0  0  0  0  0  0  0  0  0  0  0
   -2.2754   15.0054   -0.1219 C   0  0  0  0  0  0  0  0  0  0  0  0
   -1.1268   14.6996   -0.8539 C   0  0  0  0  0  0  0  0  0  0  0  0
   -0.9923   15.0104    1.8552 N   0  0  0  0  0  0  0  0  0  0  0  0
    0.0878   14.5456   -0.2655 N   0  0  0  0  0  0  0  0  0  0  0  0
   -1.3097   14.5642   -2.2179 N   0  0  0  0  0  0  0  0  0  0  0  0
   -3.6133   15.1238   -1.1898 S   0  0  0  0  0  0  0  0  0  0  0  0
   -3.0365   15.3958    1.8849 H   0  0  0  0  0  0  0  0  0  0  0  0
    1.0119   14.6014    1.5776 H   0  0  0  0  0  0  0  0  0  0  0  0
   -2.9496   14.7098   -3.5187 H   0  0  0  0  0  0  0  0  0  0  0  0
  1  4  1  0  0  0  0
  1  6  2  0  0  0  0
  2  6  1  0  0  0  0
  2  7  2  0  0  0  0
  3  8  2  0  0  0  0
  3  9  1  0  0  0  0
  4  5  2  0  0  0  0
  4  9  1  0  0  0  0
  5  7  1  0  0  0  0
  5  8  1  0  0  0  0
  1 10  1  0  0  0  0
  2 11  1  0  0  0  0
  3 12  1  0  0  0  0
M  END
> <HYBRID receptor title>
5S18(A) > WOY(A-201)

> <HYBRID receptor filename>
5s18.oedu

> <HYBRID Chemgauss4 score>
-5.945693

> <HYBRID receptor title>
5S18(A) > WOY(A-201)

> <HYBRID receptor filename>
5s18.oedu

> <Dock Type>
Hybrid

$$$$
MOL0040_1
  -OEChem-06022418243D

 15 16  0     0  0  0  0  0  0999 V2000
   -2.8276   14.4537   -2.9205 C   0  0  0  0  0  0  0  0  0  0  0  0
   -1.5979   14.5463   -2.2791 C   0  0  0  0  0  0  0  0  0  0  0  0
   -3.9608   14.5325   -2.1397 C   0  0  0  0  0  0  0  0  0  0  0  0
   -2.6059   14.9446    1.1623 C   0  0  0  0  0  0  0  0  0  0  0  0
   -0.3472   14.9622    1.0483 C   0  0  0  0  0  0  0  0  0  0  0  0
   -1.5169   14.7126   -0.9013 C   0  0  0  0  0  0  0  0  0  0  0  0
   -2.7289   14.7798   -0.2035 C   0  0  0  0  0  0  0  0  0  0  0  0
   -1.4359   15.0401    1.8253 N   0  0  0  0  0  0  0  0  0  0  0  0
   -3.9355   14.6927   -0.8001 N   0  0  0  0  0  0  0  0  0  0  0  0
   -0.3234   14.8025   -0.2871 N   0  0  0  0  0  0  0  0  0  0  0  0
   -2.8907   14.3247   -3.9946 H   0  0  0  0  0  0  0  0  0  0  0  0
   -0.6887   14.4870   -2.8741 H   0  0  0  0  0  0  0  0  0  0  0  0
   -4.9498   14.4675   -2.5806 H   0  0  0  0  0  0  0  0  0  0  0  0
   -3.4866   15.0079    1.7954 H   0  0  0  0  0  0  0  0  0  0  0  0
    0.6125   15.0350    1.5443 H   0  0  0  0  0  0  0  0  0  0  0  0
  1  2  2  0  0  0  0
  1  3  1  0  0  0  0
  2  6  1  0  0  0  0
  3  9  2  0  0  0  0
  4  7  1  0  0  0  0
  4  8  2  0  0  0  0
  5  8  1  0  0  0  0
  5 10  2  0  0  0  0
  6  7  2  0  0  0  0
  6 10  1  0  0  0  0
  7  9  1  0  0  0  0
  1 11  1  0  0  0  0
  2 12  1  0  0  0  0
  3 13  1  0  0  0  0
  4 14  1  0  0  0  0
  5 15  1  0  0  0  0
M  END
> <HYBRID receptor title>
5S18(A) > WOY(A-201)

> <HYBRID receptor filename>
5s18.oedu

> <HYBRID Chemgauss4 score>
-5.938538

> <HYBRID receptor title>
5S18(A) > WOY(A-201)

> <HYBRID receptor filename>
5s18.oedu

> <Dock Type>
Hybrid

$$$$
MOL0085_1
  -OEChem-06022418243D

 18 19  0     0  0  0  0  0  0999 V2000
   -2.7557   15.0309    1.3573 C   0  0  0  0  0  0  0  0  0  0  0  0
   -0.5498   14.7360    0.8977 C   0  0  0  0  0  0  0  0  0  0  0  0
   -3.0904   14.8382    0.0288 C   0  0  0  0  0  0  0  0  0  0  0  0
   -2.0265   14.6066   -0.8352 C   0  0  0  0  0  0  0  0  0  0  0  0
   -4.4990   14.9375   -0.4705 C   0  0  0  0  0  0  0  0  0  0  0  0
   -2.3027   14.3559   -2.2926 C   0  0  0  0  0  0  0  0  0  0  0  0
   -3.6672   14.9086   -2.6888 C   0  0  0  0  0  0  0  0  0  0  0  0
   -1.4922   14.9827    1.8265 N   0  0  0  0  0  0  0  0  0  0  0  0
   -0.7417   14.5400   -0.4209 N   0  0  0  0  0  0  0  0  0  0  0  0
   -4.6572   14.4024   -1.7908 O   0  0  0  0  0  0  0  0  0  0  0  0
   -3.5141   15.2389    2.1053 H   0  0  0  0  0  0  0  0  0  0  0  0
    0.4740   14.6896    1.2485 H   0  0  0  0  0  0  0  0  0  0  0  0
   -5.1713   14.3746    0.1854 H   0  0  0  0  0  0  0  0  0  0  0  0
   -4.8215   15.9850   -0.4773 H   0  0  0  0  0  0  0  0  0  0  0  0
   -1.5195   14.8046   -2.9126 H   0  0  0  0  0  0  0  0  0  0  0  0
   -2.2871   13.2705   -2.4484 H   0  0  0  0  0  0  0  0  0  0  0  0
   -3.6852   16.0054   -2.6796 H   0  0  0  0  0  0  0  0  0  0  0  0
   -3.9251   14.5789   -3.7003 H   0  0  0  0  0  0  0  0  0  0  0  0
  1  3  1  0  0  0  0
  1  8  2  0  0  0  0
  2  8  1  0  0  0  0
  2  9  2  0  0  0  0
  3  4  2  0  0  0  0
  3  5  1  0  0  0  0
  4  6  1  0  0  0  0
  4  9  1  0  0  0  0
  5 10  1  0  0  0  0
  6  7  1  0  0  0  0
  7 10  1  0  0  0  0
  1 11  1  0  0  0  0
  2 12  1  0  0  0  0
  5 13  1  0  0  0  0
  5 14  1  0  0  0  0
  6 15  1  0  0  0  0
  6 16  1  0  0  0  0
  7 17  1  0  0  0  0
  7 18  1  0  0  0  0
M  END
> <HYBRID receptor title>
5S18(A) > WOY(A-201)

> <HYBRID receptor filename>
5s18.oedu

> <HYBRID Chemgauss4 score>
-5.888382

> <HYBRID receptor title>
5S18(A) > WOY(A-201)

> <HYBRID receptor filename>
5s18.oedu

> <Dock Type>
Hybrid

$$$$
MOL0146_1
  -OEChem-06022418243D

 23 24  0     0  0  0  0  0  0999 V2000
   -0.6074   14.8992    1.0672 C   0  0  0  0  0  0  0  0  0  0  0  0
   -2.8844   14.9196    1.3706 C   0  0  0  0  0  0  0  0  0  0  0  0
   -0.7313   14.8369   -0.3165 C   0  0  0  0  0  0  0  0  0  0  0  0
   -2.0253   14.8407   -0.8536 C   0  0  0  0  0  0  0  0  0  0  0  0
   -3.1236   14.8696    0.0067 C   0  0  0  0  0  0  0  0  0  0  0  0
   -2.2241   14.7513   -2.3445 C   0  0  0  0  0  0  0  0  0  0  0  0
    0.4795   14.8363   -1.2088 C   0  0  0  0  0  0  0  0  0  0  0  0
   -0.9550   15.1009   -3.1263 C   0  0  0  0  0  0  0  0  0  0  0  0
   -4.5288   14.8409   -0.4899 C   0  0  0  0  0  0  0  0  0  0  0  0
   -1.6523   14.9379    1.9242 N   0  0  0  0  0  0  0  0  0  0  0  0
    0.1955   14.3837   -2.5763 N   0  0  0  0  0  0  0  0  0  0  0  0
    0.3688   14.9225    1.5417 H   0  0  0  0  0  0  0  0  0  0  0  0
   -3.7024   14.9440    2.0844 H   0  0  0  0  0  0  0  0  0  0  0  0
   -2.5337   13.7273   -2.5892 H   0  0  0  0  0  0  0  0  0  0  0  0
   -3.0212   15.4322   -2.6645 H   0  0  0  0  0  0  0  0  0  0  0  0
    0.8996   15.8493   -1.2349 H   0  0  0  0  0  0  0  0  0  0  0  0
    1.2409   14.1706   -0.7867 H   0  0  0  0  0  0  0  0  0  0  0  0
   -1.0911   14.8204   -4.1766 H   0  0  0  0  0  0  0  0  0  0  0  0
   -0.7717   16.1829   -3.1052 H   0  0  0  0  0  0  0  0  0  0  0  0
   -4.8977   15.8611   -0.6537 H   0  0  0  0  0  0  0  0  0  0  0  0
   -4.6070   14.2875   -1.4350 H   0  0  0  0  0  0  0  0  0  0  0  0
   -5.1950   14.3414    0.2260 H   0  0  0  0  0  0  0  0  0  0  0  0
    1.0144   14.5534   -3.1596 H   0  0  0  0  0  0  0  0  0  0  0  0
  1  3  2  0  0  0  0
  1 10  1  0  0  0  0
  2  5  1  0  0  0  0
  2 10  2  0  0  0  0
  3  4  1  0  0  0  0
  3  7  1  0  0  0  0
  4  5  2  0  0  0  0
  4  6  1  0  0  0  0
  5  9  1  0  0  0  0
  6  8  1  0  0  0  0
  7 11  1  0  0  0  0
  8 11  1  0  0  0  0
  1 12  1  0  0  0  0
  2 13  1  0  0  0  0
  6 14  1  0  0  0  0
  6 15  1  0  0  0  0
  7 16  1  0  0  0  0
  7 17  1  0  0  0  0
  8 18  1  0  0  0  0
  8 19  1  0  0  0  0
  9 20  1  0  0  0  0
  9 21  1  0  0  0  0
  9 22  1  0  0  0  0
 11 23  1  0  0  0  0
M  END
> <HYBRID receptor title>
5S18(A) > WOY(A-201)

> <HYBRID receptor filename>
5s18.oedu

> <HYBRID Chemgauss4 score>
-5.810624

> <HYBRID receptor title>
5S18(A) > WOY(A-201)

> <HYBRID receptor filename>
5s18.oedu

> <Dock Type>
Hybrid

$$$$
MOL0051_1
  -OEChem-06022418243D

 16 17  0     0  0  0  0  0  0999 V2000
   -2.8486   15.2427    1.1336 C   0  0  0  0  0  0  0  0  0  0  0  0
   -2.8735   15.0116   -0.2164 C   0  0  0  0  0  0  0  0  0  0  0  0
   -1.6746   14.7214   -0.8475 C   0  0  0  0  0  0  0  0  0  0  0  0
   -0.5906   14.8877    1.1307 C   0  0  0  0  0  0  0  0  0  0  0  0
   -3.9904   15.0555   -1.1959 C   0  0  0  0  0  0  0  0  0  0  0  0
   -3.3104   14.4843   -2.4590 C   0  0  0  0  0  0  0  0  0  0  0  0
   -1.7038   15.1821    1.8438 N   0  0  0  0  0  0  0  0  0  0  0  0
   -0.5020   14.6517   -0.1965 N   0  0  0  0  0  0  0  0  0  0  0  0
   -1.8773   14.5275   -2.2219 N   0  0  0  0  0  0  0  0  0  0  0  0
    0.5590   14.8247    1.8245 F   0  0  0  0  0  0  0  0  0  0  0  0
   -3.7423   15.4873    1.6945 H   0  0  0  0  0  0  0  0  0  0  0  0
   -4.8356   14.4355   -0.8840 H   0  0  0  0  0  0  0  0  0  0  0  0
   -4.3155   16.0881   -1.3573 H   0  0  0  0  0  0  0  0  0  0  0  0
   -3.6208   13.4443   -2.6158 H   0  0  0  0  0  0  0  0  0  0  0  0
   -3.5845   15.0551   -3.3520 H   0  0  0  0  0  0  0  0  0  0  0  0
   -1.1585   14.2426   -2.8687 H   0  0  0  0  0  0  0  0  0  0  0  0
  1  2  1  0  0  0  0
  1  7  2  0  0  0  0
  2  3  2  0  0  0  0
  2  5  1  0  0  0  0
  3  8  1  0  0  0  0
  3  9  1  0  0  0  0
  4  7  1  0  0  0  0
  4  8  2  0  0  0  0
  4 10  1  0  0  0  0
  5  6  1  0  0  0  0
  6  9  1  0  0  0  0
  1 11  1  0  0  0  0
  5 12  1  0  0  0  0
  5 13  1  0  0  0  0
  6 14  1  0  0  0  0
  6 15  1  0  0  0  0
  9 16  1  0  0  0  0
M  END
> <HYBRID receptor title>
5S18(A) > WOY(A-201)

> <HYBRID receptor filename>
5s18.oedu

> <HYBRID Chemgauss4 score>
-5.807543

> <HYBRID receptor title>
5S18(A) > WOY(A-201)

> <HYBRID receptor filename>
5s18.oedu

> <Dock Type>
Hybrid

$$$$
MOL0049_1
  -OEChem-06022418243D

 28 30  0     0  0  0  0  0  0999 V2000
   -1.3750   14.2778   -1.7088 C   0  0  0  0  0  0  0  0  0  0  0  0
   -2.4998   14.2778   -1.2869 C   0  0  0  0  0  0  0  0  0  0  0  0
    2.5765   14.2776   -3.1905 C   0  0  0  0  0  0  0  0  0  0  0  0
    2.3421   14.0850   -1.8290 C   0  0  0  0  0  0  0  0  0  0  0  0
    1.5048   14.4702   -4.0623 C   0  0  0  0  0  0  0  0  0  0  0  0
    1.0360   14.0849   -1.3394 C   0  0  0  0  0  0  0  0  0  0  0  0
    0.1987   14.4701   -3.5726 C   0  0  0  0  0  0  0  0  0  0  0  0
   -6.0668   14.0404   -1.2032 C   0  0  0  0  0  0  0  0  0  0  0  0
   -0.0357   14.2775   -2.2112 C   0  0  0  0  0  0  0  0  0  0  0  0
   -3.8318   14.2776   -0.7872 C   0  0  0  0  0  0  0  0  0  0  0  0
   -6.3251   14.2775    0.1211 C   0  0  0  0  0  0  0  0  0  0  0  0
   -5.2478   14.5072    0.9615 C   0  0  0  0  0  0  0  0  0  0  0  0
   -7.6025   14.2953    0.8806 C   0  0  0  0  0  0  0  0  0  0  0  0
   -7.1352   14.8350    2.2497 C   0  0  0  0  0  0  0  0  0  0  0  0
   -4.8102   14.0389   -1.6928 N   0  0  0  0  0  0  0  0  0  0  0  0
   -3.9743   14.5136    0.5353 N   0  0  0  0  0  0  0  0  0  0  0  0
   -5.6870   14.7165    2.2772 N   0  0  0  0  0  0  0  0  0  0  0  0
    3.5937   14.2794   -3.5713 H   0  0  0  0  0  0  0  0  0  0  0  0
    3.1765   13.9362   -1.1499 H   0  0  0  0  0  0  0  0  0  0  0  0
    1.6866   14.6211   -5.1223 H   0  0  0  0  0  0  0  0  0  0  0  0
    0.8697   13.9337   -0.2755 H   0  0  0  0  0  0  0  0  0  0  0  0
   -0.6263   14.6220   -4.2644 H   0  0  0  0  0  0  0  0  0  0  0  0
   -6.8548   13.8400   -1.9188 H   0  0  0  0  0  0  0  0  0  0  0  0
   -8.3435   14.9574    0.4239 H   0  0  0  0  0  0  0  0  0  0  0  0
   -8.0045   13.2816    0.9747 H   0  0  0  0  0  0  0  0  0  0  0  0
   -7.4148   15.8902    2.3534 H   0  0  0  0  0  0  0  0  0  0  0  0
   -7.5965   14.2825    3.0747 H   0  0  0  0  0  0  0  0  0  0  0  0
   -5.0843   14.9659    3.0457 H   0  0  0  0  0  0  0  0  0  0  0  0
  1  2  3  0  0  0  0
  1  9  1  0  0  0  0
  2 10  1  0  0  0  0
  3  4  1  0  0  0  0
  3  5  2  0  0  0  0
  4  6  2  0  0  0  0
  5  7  1  0  0  0  0
  6  9  1  0  0  0  0
  7  9  2  0  0  0  0
  8 11  1  0  0  0  0
  8 15  2  0  0  0  0
 10 15  1  0  0  0  0
 10 16  2  0  0  0  0
 11 12  2  0  0  0  0
 11 13  1  0  0  0  0
 12 16  1  0  0  0  0
 12 17  1  0  0  0  0
 13 14  1  0  0  0  0
 14 17  1  0  0  0  0
  3 18  1  0  0  0  0
  4 19  1  0  0  0  0
  5 20  1  0  0  0  0
  6 21  1  0  0  0  0
  7 22  1  0  0  0  0
  8 23  1  0  0  0  0
 13 24  1  0  0  0  0
 13 25  1  0  0  0  0
 14 26  1  0  0  0  0
 14 27  1  0  0  0  0
 17 28  1  0  0  0  0
M  END
> <HYBRID receptor title>
5S18(A) > WOY(A-201)

> <HYBRID receptor filename>
5s18.oedu

> <HYBRID Chemgauss4 score>
-5.783460

> <HYBRID receptor title>
5S18(A) > WOY(A-201)

> <HYBRID receptor filename>
5s18.oedu

> <Dock Type>
Hybrid

$$$$
MOL0109_2
  -OEChem-06022418243D

 22 23  0     1  0  0  0  0  0999 V2000
   -2.5619   15.3582    1.3202 C   0  0  0  0  0  0  0  0  0  0  0  0
   -0.4025   14.6628    1.1361 C   0  0  0  0  0  0  0  0  0  0  0  0
   -2.7691   15.1924   -0.0383 C   0  0  0  0  0  0  0  0  0  0  0  0
   -1.6607   14.7504   -0.7587 C   0  0  0  0  0  0  0  0  0  0  0  0
   -1.7866   14.6296   -2.2527 C   0  0  0  0  0  0  0  0  0  0  0  0
   -3.1031   13.9644   -2.6548 C   0  0  0  0  0  0  0  0  0  0  0  0
   -4.3202   14.3723   -1.8069 C   0  0  0  0  0  0  0  0  0  0  0  0
   -4.0423   15.4926   -0.7869 C   0  0  1  0  0  0  0  0  0  0  0  0
   -1.3913   15.0952    1.9400 N   0  0  0  0  0  0  0  0  0  0  0  0
   -0.4636   14.4778   -0.1953 N   0  0  0  0  0  0  0  0  0  0  0  0
   -5.2163   15.6704    0.0716 N   0  0  0  0  0  0  0  0  0  0  0  0
   -3.3496   15.7142    1.9734 H   0  0  0  0  0  0  0  0  0  0  0  0
    0.5451   14.4420    1.6121 H   0  0  0  0  0  0  0  0  0  0  0  0
   -1.7470   15.6326   -2.6745 H   0  0  0  0  0  0  0  0  0  0  0  0
   -0.9541   14.0547   -2.6510 H   0  0  0  0  0  0  0  0  0  0  0  0
   -3.3112   14.1892   -3.7271 H   0  0  0  0  0  0  0  0  0  0  0  0
   -2.9846   12.8551   -2.6288 H   0  0  0  0  0  0  0  0  0  0  0  0
   -5.1325   14.6966   -2.4917 H   0  0  0  0  0  0  0  0  0  0  0  0
   -4.7283   13.4765   -1.2940 H   0  0  0  0  0  0  0  0  0  0  0  0
   -3.9033   16.4136   -1.3681 H   0  0  0  0  0  0  0  0  0  0  0  0
   -5.8766   14.9720   -0.1677 H   0  0  0  0  0  0  0  0  0  0  0  0
   -4.9217   15.5738    1.0123 H   0  0  0  0  0  0  0  0  0  0  0  0
  1  3  1  0  0  0  0
  1  9  2  0  0  0  0
  2  9  1  0  0  0  0
  2 10  2  0  0  0  0
  3  4  2  0  0  0  0
  3  8  1  0  0  0  0
  4  5  1  0  0  0  0
  4 10  1  0  0  0  0
  5  6  1  0  0  0  0
  6  7  1  0  0  0  0
  7  8  1  0  0  0  0
  8 11  1  0  0  0  0
  1 12  1  0  0  0  0
  2 13  1  0  0  0  0
  5 14  1  0  0  0  0
  5 15  1  0  0  0  0
  6 16  1  0  0  0  0
  6 17  1  0  0  0  0
  7 18  1  0  0  0  0
  7 19  1  0  0  0  0
  8 20  1  0  0  0  0
 11 21  1  0  0  0  0
 11 22  1  0  0  0  0
M  END
> <HYBRID receptor title>
5S18(A) > WOY(A-201)

> <HYBRID receptor filename>
5s18.oedu

> <HYBRID Chemgauss4 score>
-5.783321

> <HYBRID receptor title>
5S18(A) > WOY(A-201)

> <HYBRID receptor filename>
5s18.oedu

> <Dock Type>
Hybrid

$$$$
MOL0023_1
  -OEChem-06022418243D

 19 20  0     0  0  0  0  0  0999 V2000
   -3.5799   15.2185    1.6431 C   0  0  0  0  0  0  0  0  0  0  0  0
   -4.1164   15.1219    0.3706 C   0  0  0  0  0  0  0  0  0  0  0  0
   -3.1958   15.0000   -0.6651 C   0  0  0  0  0  0  0  0  0  0  0  0
   -1.4657   15.1150    0.8183 C   0  0  0  0  0  0  0  0  0  0  0  0
   -5.5956   15.0750    0.1252 C   0  0  0  0  0  0  0  0  0  0  0  0
   -3.6805   14.9169   -2.0885 C   0  0  0  0  0  0  0  0  0  0  0  0
   -5.1558   14.5182   -2.1775 C   0  0  0  0  0  0  0  0  0  0  0  0
   -2.2564   15.2223    1.9016 N   0  0  0  0  0  0  0  0  0  0  0  0
   -1.8585   15.0049   -0.4650 N   0  0  0  0  0  0  0  0  0  0  0  0
   -5.9723   15.3321   -1.2720 N   0  0  0  0  0  0  0  0  0  0  0  0
    0.2197   15.1182    1.1010 Cl  0  0  0  0  0  0  0  0  0  0  0  0
   -4.2168   15.3003    2.5182 H   0  0  0  0  0  0  0  0  0  0  0  0
   -5.9858   14.0882    0.4058 H   0  0  0  0  0  0  0  0  0  0  0  0
   -6.0888   15.8123    0.7730 H   0  0  0  0  0  0  0  0  0  0  0  0
   -3.5342   15.8828   -2.5837 H   0  0  0  0  0  0  0  0  0  0  0  0
   -3.0648   14.1765   -2.6128 H   0  0  0  0  0  0  0  0  0  0  0  0
   -5.5260   14.6202   -3.2082 H   0  0  0  0  0  0  0  0  0  0  0  0
   -5.2662   13.4586   -1.9121 H   0  0  0  0  0  0  0  0  0  0  0  0
   -6.9542   15.0948   -1.4030 H   0  0  0  0  0  0  0  0  0  0  0  0
  1  2  1  0  0  0  0
  1  8  2  0  0  0  0
  2  3  2  0  0  0  0
  2  5  1  0  0  0  0
  3  6  1  0  0  0  0
  3  9  1  0  0  0  0
  4  8  1  0  0  0  0
  4  9  2  0  0  0  0
  4 11  1  0  0  0  0
  5 10  1  0  0  0  0
  6  7  1  0  0  0  0
  7 10  1  0  0  0  0
  1 12  1  0  0  0  0
  5 13  1  0  0  0  0
  5 14  1  0  0  0  0
  6 15  1  0  0  0  0
  6 16  1  0  0  0  0
  7 17  1  0  0  0  0
  7 18  1  0  0  0  0
 10 19  1  0  0  0  0
M  END
> <HYBRID receptor title>
5S18(A) > WOY(A-201)

> <HYBRID receptor filename>
5s18.oedu

> <HYBRID Chemgauss4 score>
-5.764565

> <HYBRID receptor title>
5S18(A) > WOY(A-201)

> <HYBRID receptor filename>
5s18.oedu

> <Dock Type>
Hybrid

$$$$
MOL0116_1
  -OEChem-06022418243D

 20 21  0     0  0  0  0  0  0999 V2000
   -2.4260   15.1226    0.9627 C   0  0  0  0  0  0  0  0  0  0  0  0
   -0.1426   14.8714    0.9820 C   0  0  0  0  0  0  0  0  0  0  0  0
   -2.5034   14.8666   -0.4020 C   0  0  0  0  0  0  0  0  0  0  0  0
   -1.3104   14.5775   -1.0774 C   0  0  0  0  0  0  0  0  0  0  0  0
   -0.1049   14.5928   -0.3748 C   0  0  0  0  0  0  0  0  0  0  0  0
   -1.3274   14.3147   -2.5609 C   0  0  0  0  0  0  0  0  0  0  0  0
   -3.8272   14.8318   -1.1152 C   0  0  0  0  0  0  0  0  0  0  0  0
   -2.7269   13.9726   -3.0788 C   0  0  0  0  0  0  0  0  0  0  0  0
   -1.2744   15.1347    1.6709 N   0  0  0  0  0  0  0  0  0  0  0  0
   -3.7059   14.9360   -2.5746 N   0  0  0  0  0  0  0  0  0  0  0  0
    1.4238   14.3019   -1.1146 Cl  0  0  0  0  0  0  0  0  0  0  0  0
   -3.3183   15.3311    1.5451 H   0  0  0  0  0  0  0  0  0  0  0  0
    0.7621   14.8973    1.5825 H   0  0  0  0  0  0  0  0  0  0  0  0
   -0.9566   15.2105   -3.0752 H   0  0  0  0  0  0  0  0  0  0  0  0
   -0.6669   13.4775   -2.8136 H   0  0  0  0  0  0  0  0  0  0  0  0
   -4.3451   13.9009   -0.8531 H   0  0  0  0  0  0  0  0  0  0  0  0
   -4.4473   15.6668   -0.7698 H   0  0  0  0  0  0  0  0  0  0  0  0
   -2.7215   13.9978   -4.1740 H   0  0  0  0  0  0  0  0  0  0  0  0
   -3.0113   12.9545   -2.7838 H   0  0  0  0  0  0  0  0  0  0  0  0
   -4.6151   14.7520   -2.9978 H   0  0  0  0  0  0  0  0  0  0  0  0
  1  3  2  0  0  0  0
  1  9  1  0  0  0  0
  2  5  1  0  0  0  0
  2  9  2  0  0  0  0
  3  4  1  0  0  0  0
  3  7  1  0  0  0  0
  4  5  2  0  0  0  0
  4  6  1  0  0  0  0
  5 11  1  0  0  0  0
  6  8  1  0  0  0  0
  7 10  1  0  0  0  0
  8 10  1  0  0  0  0
  1 12  1  0  0  0  0
  2 13  1  0  0  0  0
  6 14  1  0  0  0  0
  6 15  1  0  0  0  0
  7 16  1  0  0  0  0
  7 17  1  0  0  0  0
  8 18  1  0  0  0  0
  8 19  1  0  0  0  0
 10 20  1  0  0  0  0
M  END
> <HYBRID receptor title>
5S18(A) > WOY(A-201)

> <HYBRID receptor filename>
5s18.oedu

> <HYBRID Chemgauss4 score>
-5.760566

> <HYBRID receptor title>
5S18(A) > WOY(A-201)

> <HYBRID receptor filename>
5s18.oedu

> <Dock Type>
Hybrid

$$$$
MOL0189_1
  -OEChem-06022418243D

 19 20  0     1  0  0  0  0  0999 V2000
   -0.1590   14.6213    1.3685 C   0  0  0  0  0  0  0  0  0  0  0  0
   -0.1768   14.6339   -0.0089 C   0  0  0  0  0  0  0  0  0  0  0  0
   -2.4187   14.9712    1.4009 C   0  0  0  0  0  0  0  0  0  0  0  0
   -2.4364   14.9845    0.0235 C   0  0  0  0  0  0  0  0  0  0  0  0
   -3.7404   14.8713   -2.3563 C   0  0  0  0  0  0  0  0  0  0  0  0
   -5.1120   14.2350   -2.0773 C   0  0  0  0  0  0  0  0  0  0  0  0
   -3.7392   15.1933   -0.8433 C   0  0  1  0  0  0  0  0  0  0  0  0
   -1.2797   14.7897    2.0981 N   0  0  0  0  0  0  0  0  0  0  0  0
   -1.3158   14.8158   -0.7060 N   0  0  0  0  0  0  0  0  0  0  0  0
   -4.6859   14.0570   -0.6715 N   0  0  0  0  0  0  0  0  0  0  0  0
    0.7566   14.4752    1.9280 H   0  0  0  0  0  0  0  0  0  0  0  0
    0.7241   14.4983   -0.5945 H   0  0  0  0  0  0  0  0  0  0  0  0
   -3.3173   15.1061    1.9907 H   0  0  0  0  0  0  0  0  0  0  0  0
   -2.9736   14.1567   -2.6786 H   0  0  0  0  0  0  0  0  0  0  0  0
   -3.7403   15.7303   -3.0321 H   0  0  0  0  0  0  0  0  0  0  0  0
   -5.9583   14.9214   -2.1980 H   0  0  0  0  0  0  0  0  0  0  0  0
   -5.3231   13.3071   -2.6152 H   0  0  0  0  0  0  0  0  0  0  0  0
   -4.2104   16.1690   -0.6236 H   0  0  0  0  0  0  0  0  0  0  0  0
   -5.4190   14.2115    0.0188 H   0  0  0  0  0  0  0  0  0  0  0  0
  1  2  1  0  0  0  0
  1  8  2  0  0  0  0
  2  9  2  0  0  0  0
  3  4  2  0  0  0  0
  3  8  1  0  0  0  0
  4  7  1  0  0  0  0
  4  9  1  0  0  0  0
  5  6  1  0  0  0  0
  5  7  1  0  0  0  0
  6 10  1  0  0  0  0
  7 10  1  0  0  0  0
  1 11  1  0  0  0  0
  2 12  1  0  0  0  0
  3 13  1  0  0  0  0
  5 14  1  0  0  0  0
  5 15  1  0  0  0  0
  6 16  1  0  0  0  0
  6 17  1  0  0  0  0
  7 18  1  0  0  0  0
 10 19  1  0  0  0  0
M  END
> <HYBRID receptor title>
5S18(A) > WOY(A-201)

> <HYBRID receptor filename>
5s18.oedu

> <HYBRID Chemgauss4 score>
-5.748707

> <HYBRID receptor title>
5S18(A) > WOY(A-201)

> <HYBRID receptor filename>
5s18.oedu

> <Dock Type>
Hybrid

$$$$
MOL0071_1
  -OEChem-06022418243D

 15 16  0     0  0  0  0  0  0999 V2000
   -0.1365   14.6762   -0.2801 C   0  0  0  0  0  0  0  0  0  0  0  0
   -0.1412   14.8897    1.0927 C   0  0  0  0  0  0  0  0  0  0  0  0
   -2.4187   15.0953    1.1424 C   0  0  0  0  0  0  0  0  0  0  0  0
   -3.7073   14.8825   -0.9487 C   0  0  0  0  0  0  0  0  0  0  0  0
   -2.5975   14.4861   -2.8817 C   0  0  0  0  0  0  0  0  0  0  0  0
   -2.5105   14.8891   -0.2369 C   0  0  0  0  0  0  0  0  0  0  0  0
   -1.3399   14.6731   -0.9736 C   0  0  0  0  0  0  0  0  0  0  0  0
   -1.2551   15.1000    1.8241 N   0  0  0  0  0  0  0  0  0  0  0  0
   -3.7817   14.6828   -2.2775 N   0  0  0  0  0  0  0  0  0  0  0  0
   -1.3787   14.4701   -2.3026 N   0  0  0  0  0  0  0  0  0  0  0  0
    0.8044   14.5147   -0.7982 H   0  0  0  0  0  0  0  0  0  0  0  0
    0.7877   14.8969    1.6538 H   0  0  0  0  0  0  0  0  0  0  0  0
   -3.3028   15.2663    1.7492 H   0  0  0  0  0  0  0  0  0  0  0  0
   -4.6620   15.0419   -0.4566 H   0  0  0  0  0  0  0  0  0  0  0  0
   -2.6227   14.3216   -3.9521 H   0  0  0  0  0  0  0  0  0  0  0  0
  1  2  1  0  0  0  0
  1  7  2  0  0  0  0
  2  8  2  0  0  0  0
  3  6  2  0  0  0  0
  3  8  1  0  0  0  0
  4  6  1  0  0  0  0
  4  9  2  0  0  0  0
  5  9  1  0  0  0  0
  5 10  2  0  0  0  0
  6  7  1  0  0  0  0
  7 10  1  0  0  0  0
  1 11  1  0  0  0  0
  2 12  1  0  0  0  0
  3 13  1  0  0  0  0
  4 14  1  0  0  0  0
  5 15  1  0  0  0  0
M  END
> <HYBRID receptor title>
5S18(A) > WOY(A-201)

> <HYBRID receptor filename>
5s18.oedu

> <HYBRID Chemgauss4 score>
-5.731295

> <HYBRID receptor title>
5S18(A) > WOY(A-201)

> <HYBRID receptor filename>
5s18.oedu

> <Dock Type>
Hybrid

$$$$
MOL0134_3
  -OEChem-06022418243D

 23 25  0     1  0  0  0  0  0999 V2000
   -3.0414   15.2693    1.2845 C   0  0  0  0  0  0  0  0  0  0  0  0
   -0.8972   14.5837    0.8949 C   0  0  0  0  0  0  0  0  0  0  0  0
   -3.2830   15.2406   -0.0643 C   0  0  0  0  0  0  0  0  0  0  0  0
   -2.2467   14.8634   -0.9001 C   0  0  0  0  0  0  0  0  0  0  0  0
   -4.5083   15.5740   -0.8401 C   0  0  0  0  0  0  0  0  0  0  0  0
   -5.3104   12.9709   -2.0114 C   0  0  0  0  0  0  0  0  0  0  0  0
   -6.3187   13.9536   -2.5380 C   0  0  0  0  0  0  0  0  0  0  0  0
   -4.8633   14.1137   -2.8802 C   0  0  0  0  0  0  0  0  0  0  0  0
   -4.0684   15.2456   -2.2929 C   0  0  2  0  0  0  0  0  0  0  0  0
   -1.8397   14.9388    1.7996 N   0  0  0  0  0  0  0  0  0  0  0  0
   -1.0277   14.5252   -0.4483 N   0  0  0  0  0  0  0  0  0  0  0  0
   -2.6560   14.8885   -2.2377 N   0  0  0  0  0  0  0  0  0  0  0  0
   -3.8007   15.5589    2.0007 H   0  0  0  0  0  0  0  0  0  0  0  0
    0.0737   14.3165    1.2953 H   0  0  0  0  0  0  0  0  0  0  0  0
   -5.3623   14.9761   -0.5075 H   0  0  0  0  0  0  0  0  0  0  0  0
   -4.7339   16.6407   -0.7376 H   0  0  0  0  0  0  0  0  0  0  0  0
   -5.0811   13.0028   -0.9534 H   0  0  0  0  0  0  0  0  0  0  0  0
   -5.3023   11.9772   -2.4424 H   0  0  0  0  0  0  0  0  0  0  0  0
   -6.9866   13.6192   -3.3223 H   0  0  0  0  0  0  0  0  0  0  0  0
   -6.7649   14.6437   -1.8327 H   0  0  0  0  0  0  0  0  0  0  0  0
   -4.5568   13.8843   -3.8937 H   0  0  0  0  0  0  0  0  0  0  0  0
   -4.1991   16.1308   -2.9266 H   0  0  0  0  0  0  0  0  0  0  0  0
   -2.0755   14.6345   -3.0219 H   0  0  0  0  0  0  0  0  0  0  0  0
  1  3  1  0  0  0  0
  1 10  2  0  0  0  0
  2 10  1  0  0  0  0
  2 11  2  0  0  0  0
  3  4  2  0  0  0  0
  3  5  1  0  0  0  0
  4 11  1  0  0  0  0
  4 12  1  0  0  0  0
  5  9  1  0  0  0  0
  6  7  1  0  0  0  0
  6  8  1  0  0  0  0
  7  8  1  0  0  0  0
  8  9  1  0  0  0  0
  9 12  1  0  0  0  0
  1 13  1  0  0  0  0
  2 14  1  0  0  0  0
  5 15  1  0  0  0  0
  5 16  1  0  0  0  0
  6 17  1  0  0  0  0
  6 18  1  0  0  0  0
  7 19  1  0  0  0  0
  7 20  1  0  0  0  0
  8 21  1  0  0  0  0
  9 22  1  0  0  0  0
 12 23  1  0  0  0  0
M  END
> <HYBRID receptor title>
5S18(A) > WOY(A-201)

> <HYBRID receptor filename>
5s18.oedu

> <HYBRID Chemgauss4 score>
-5.708489

> <HYBRID receptor title>
5S18(A) > WOY(A-201)

> <HYBRID receptor filename>
5s18.oedu

> <Dock Type>
Hybrid

$$$$
MOL0009_1
  -OEChem-06022418243D

 18 19  0     0  0  0  0  0  0999 V2000
   -2.7427   14.6388   -1.3251 C   0  0  0  0  0  0  0  0  0  0  0  0
   -3.6547   14.9587   -0.3544 C   0  0  0  0  0  0  0  0  0  0  0  0
   -3.1845   15.1833    0.9294 C   0  0  0  0  0  0  0  0  0  0  0  0
   -1.0705   14.7943    0.2255 C   0  0  0  0  0  0  0  0  0  0  0  0
   -5.1354   15.0767   -0.4042 C   0  0  0  0  0  0  0  0  0  0  0  0
   -5.4409   15.6672    0.9895 C   0  0  0  0  0  0  0  0  0  0  0  0
   -1.4233   14.5526   -1.0596 N   0  0  0  0  0  0  0  0  0  0  0  0
   -1.8844   15.1076    1.2572 N   0  0  0  0  0  0  0  0  0  0  0  0
   -4.2460   15.4833    1.7959 N   0  0  0  0  0  0  0  0  0  0  0  0
    0.3337   14.7050    0.5265 N   0  3  0  0  0  0  0  0  0  0  0  0
    1.1173   14.4167   -0.3980 O   0  5  0  0  0  0  0  0  0  0  0  0
    0.7000   14.9199    1.6977 O   0  0  0  0  0  0  0  0  0  0  0  0
   -3.0346   14.4380   -2.3487 H   0  0  0  0  0  0  0  0  0  0  0  0
   -5.4681   15.7466   -1.2020 H   0  0  0  0  0  0  0  0  0  0  0  0
   -5.5934   14.0893   -0.5209 H   0  0  0  0  0  0  0  0  0  0  0  0
   -5.6590   16.7386    0.9045 H   0  0  0  0  0  0  0  0  0  0  0  0
   -6.3097   15.1827    1.4464 H   0  0  0  0  0  0  0  0  0  0  0  0
   -4.1351   15.7461    2.7628 H   0  0  0  0  0  0  0  0  0  0  0  0
  1  2  1  0  0  0  0
  1  7  2  0  0  0  0
  2  3  2  0  0  0  0
  2  5  1  0  0  0  0
  3  8  1  0  0  0  0
  3  9  1  0  0  0  0
  4  7  1  0  0  0  0
  4  8  2  0  0  0  0
  4 10  1  0  0  0  0
  5  6  1  0  0  0  0
  6  9  1  0  0  0  0
 10 11  1  0  0  0  0
 10 12  2  0  0  0  0
  1 13  1  0  0  0  0
  5 14  1  0  0  0  0
  5 15  1  0  0  0  0
  6 16  1  0  0  0  0
  6 17  1  0  0  0  0
  9 18  1  0  0  0  0
M  CHG  2  10   1  11  -1
M  END
> <HYBRID receptor title>
5S18(A) > WOY(A-201)

> <HYBRID receptor filename>
5s18.oedu

> <HYBRID Chemgauss4 score>
-5.704195

> <HYBRID receptor title>
5S18(A) > WOY(A-201)

> <HYBRID receptor filename>
5s18.oedu

> <Dock Type>
Hybrid

$$$$
MOL0172_5
  -OEChem-06022418243D

 29 31  0     0  0  0  0  0  0999 V2000
   -6.7072   14.0502   -0.7914 C   0  0  0  0  0  0  0  0  0  0  0  0
   -6.0529   15.1912   -1.2557 C   0  0  0  0  0  0  0  0  0  0  0  0
   -6.2134   13.3665    0.3197 C   0  0  0  0  0  0  0  0  0  0  0  0
   -4.9047   15.6485   -0.6091 C   0  0  0  0  0  0  0  0  0  0  0  0
   -5.0652   13.8238    0.9663 C   0  0  0  0  0  0  0  0  0  0  0  0
    0.3174   14.5403    0.6622 C   0  0  0  0  0  0  0  0  0  0  0  0
    0.3775   14.4592   -0.7039 C   0  0  0  0  0  0  0  0  0  0  0  0
   -4.4108   14.9648    0.5020 C   0  0  0  0  0  0  0  0  0  0  0  0
   -0.7806   14.7136   -1.4207 C   0  0  0  0  0  0  0  0  0  0  0  0
   -1.8936   15.0997    0.5101 C   0  0  0  0  0  0  0  0  0  0  0  0
    1.4932   14.0903   -1.6138 C   0  0  0  0  0  0  0  0  0  0  0  0
    0.8852   14.4258   -2.9929 C   0  0  0  0  0  0  0  0  0  0  0  0
   -3.1633   15.4609    1.2048 C   0  0  0  0  0  0  0  0  0  0  0  0
   -0.8219   14.8677    1.3051 N   0  0  0  0  0  0  0  0  0  0  0  0
   -1.9461   15.0393   -0.8385 N   0  0  0  0  0  0  0  0  0  0  0  0
   -0.5471   14.5741   -2.7969 N   0  0  0  0  0  0  0  0  0  0  0  0
   -7.6020   13.6951   -1.2942 H   0  0  0  0  0  0  0  0  0  0  0  0
   -6.4379   15.7243   -2.1201 H   0  0  0  0  0  0  0  0  0  0  0  0
   -6.7232   12.4788    0.6821 H   0  0  0  0  0  0  0  0  0  0  0  0
   -4.4013   16.5383   -0.9780 H   0  0  0  0  0  0  0  0  0  0  0  0
   -4.6876   13.2846    1.8311 H   0  0  0  0  0  0  0  0  0  0  0  0
    1.1768   14.3432    1.2912 H   0  0  0  0  0  0  0  0  0  0  0  0
    2.3934   14.6807   -1.4215 H   0  0  0  0  0  0  0  0  0  0  0  0
    1.7147   13.0217   -1.5321 H   0  0  0  0  0  0  0  0  0  0  0  0
    1.2995   15.3697   -3.3668 H   0  0  0  0  0  0  0  0  0  0  0  0
    1.1085   13.6458   -3.7274 H   0  0  0  0  0  0  0  0  0  0  0  0
   -3.2365   16.5552    1.3320 H   0  0  0  0  0  0  0  0  0  0  0  0
   -3.1599   15.0770    2.2401 H   0  0  0  0  0  0  0  0  0  0  0  0
   -1.2279   14.7734   -3.5131 H   0  0  0  0  0  0  0  0  0  0  0  0
  1  2  1  0  0  0  0
  1  3  2  0  0  0  0
  2  4  2  0  0  0  0
  3  5  1  0  0  0  0
  4  8  1  0  0  0  0
  5  8  2  0  0  0  0
  6  7  1  0  0  0  0
  6 14  2  0  0  0  0
  7  9  2  0  0  0  0
  7 11  1  0  0  0  0
  8 13  1  0  0  0  0
  9 15  1  0  0  0  0
  9 16  1  0  0  0  0
 10 13  1  0  0  0  0
 10 14  1  0  0  0  0
 10 15  2  0  0  0  0
 11 12  1  0  0  0  0
 12 16  1  0  0  0  0
  1 17  1  0  0  0  0
  2 18  1  0  0  0  0
  3 19  1  0  0  0  0
  4 20  1  0  0  0  0
  5 21  1  0  0  0  0
  6 22  1  0  0  0  0
 11 23  1  0  0  0  0
 11 24  1  0  0  0  0
 12 25  1  0  0  0  0
 12 26  1  0  0  0  0
 13 27  1  0  0  0  0
 13 28  1  0  0  0  0
 16 29  1  0  0  0  0
M  END
> <HYBRID receptor title>
5S18(A) > WOY(A-201)

> <HYBRID receptor filename>
5s18.oedu

> <HYBRID Chemgauss4 score>
-5.695545

> <HYBRID receptor title>
5S18(A) > WOY(A-201)

> <HYBRID receptor filename>
5s18.oedu

> <Dock Type>
Hybrid

$$$$
MOL0220_1
  -OEChem-06022418243D

 23 24  0     0  0  0  0  0  0999 V2000
   -3.6542   15.0117    1.5753 C   0  0  0  0  0  0  0  0  0  0  0  0
   -4.3239   14.9185    0.3673 C   0  0  0  0  0  0  0  0  0  0  0  0
   -3.5248   14.7041   -0.7509 C   0  0  0  0  0  0  0  0  0  0  0  0
   -1.6477   14.7374    0.5460 C   0  0  0  0  0  0  0  0  0  0  0  0
   -5.8202   14.9692    0.2737 C   0  0  0  0  0  0  0  0  0  0  0  0
   -4.1577   14.6167   -2.1146 C   0  0  0  0  0  0  0  0  0  0  0  0
   -5.6578   14.3205   -2.0411 C   0  0  0  0  0  0  0  0  0  0  0  0
    0.4266   14.4470   -0.5805 C   0  0  0  0  0  0  0  0  0  0  0  0
   -2.3139   14.9294    1.6992 N   0  0  0  0  0  0  0  0  0  0  0  0
   -2.1768   14.6203   -0.6867 N   0  0  0  0  0  0  0  0  0  0  0  0
   -6.3203   15.2141   -1.0864 N   0  0  0  0  0  0  0  0  0  0  0  0
   -0.2780   14.6497    0.6359 O   0  0  0  0  0  0  0  0  0  0  0  0
   -4.1909   15.1619    2.5068 H   0  0  0  0  0  0  0  0  0  0  0  0
   -6.2448   14.0200    0.6255 H   0  0  0  0  0  0  0  0  0  0  0  0
   -6.1938   15.7563    0.9426 H   0  0  0  0  0  0  0  0  0  0  0  0
   -3.9987   15.5560   -2.6550 H   0  0  0  0  0  0  0  0  0  0  0  0
   -3.6502   13.8209   -2.6727 H   0  0  0  0  0  0  0  0  0  0  0  0
   -6.1241   14.4203   -3.0322 H   0  0  0  0  0  0  0  0  0  0  0  0
   -5.8115   13.2789   -1.7299 H   0  0  0  0  0  0  0  0  0  0  0  0
    1.4990   14.3950   -0.3771 H   0  0  0  0  0  0  0  0  0  0  0  0
    0.2147   15.2706   -1.2670 H   0  0  0  0  0  0  0  0  0  0  0  0
    0.0973   13.5071   -1.0297 H   0  0  0  0  0  0  0  0  0  0  0  0
   -7.3242   15.0429   -1.1097 H   0  0  0  0  0  0  0  0  0  0  0  0
  1  2  1  0  0  0  0
  1  9  2  0  0  0  0
  2  3  2  0  0  0  0
  2  5  1  0  0  0  0
  3  6  1  0  0  0  0
  3 10  1  0  0  0  0
  4  9  1  0  0  0  0
  4 10  2  0  0  0  0
  4 12  1  0  0  0  0
  5 11  1  0  0  0  0
  6  7  1  0  0  0  0
  7 11  1  0  0  0  0
  8 12  1  0  0  0  0
  1 13  1  0  0  0  0
  5 14  1  0  0  0  0
  5 15  1  0  0  0  0
  6 16  1  0  0  0  0
  6 17  1  0  0  0  0
  7 18  1  0  0  0  0
  7 19  1  0  0  0  0
  8 20  1  0  0  0  0
  8 21  1  0  0  0  0
  8 22  1  0  0  0  0
 11 23  1  0  0  0  0
M  END
> <HYBRID receptor title>
5S18(A) > WOY(A-201)

> <HYBRID receptor filename>
5s18.oedu

> <HYBRID Chemgauss4 score>
-5.676390

> <HYBRID receptor title>
5S18(A) > WOY(A-201)

> <HYBRID receptor filename>
5s18.oedu

> <Dock Type>
Hybrid

$$$$
MOL0111_5
  -OEChem-06022418243D

 22 23  0     1  0  0  0  0  0999 V2000
   -2.3508   15.1188    1.0576 C   0  0  0  0  0  0  0  0  0  0  0  0
   -0.1313   14.6682    1.0933 C   0  0  0  0  0  0  0  0  0  0  0  0
   -2.3984   14.9720   -0.3197 C   0  0  0  0  0  0  0  0  0  0  0  0
   -1.1838   14.6841   -0.9465 C   0  0  0  0  0  0  0  0  0  0  0  0
   -2.2554   15.0826   -3.1114 C   0  0  0  0  0  0  0  0  0  0  0  0
   -3.6051   14.7833   -2.4479 C   0  0  1  0  0  0  0  0  0  0  0  0
   -4.0174   13.3197   -2.6070 C   0  0  0  0  0  0  0  0  0  0  0  0
   -1.2338   14.9718    1.7965 N   0  0  0  0  0  0  0  0  0  0  0  0
   -0.0402   14.5130   -0.2411 N   0  0  0  0  0  0  0  0  0  0  0  0
   -3.5709   15.1305   -1.0339 N   0  0  0  0  0  0  0  0  0  0  0  0
   -1.1501   14.5573   -2.3325 N   0  0  0  0  0  0  0  0  0  0  0  0
   -3.6898   12.8985   -3.9187 O   0  0  0  0  0  0  0  0  0  0  0  0
   -3.2396   15.3754    1.6267 H   0  0  0  0  0  0  0  0  0  0  0  0
    0.7821   14.5307    1.6587 H   0  0  0  0  0  0  0  0  0  0  0  0
   -2.2170   14.6501   -4.1233 H   0  0  0  0  0  0  0  0  0  0  0  0
   -2.1260   16.1678   -3.2301 H   0  0  0  0  0  0  0  0  0  0  0  0
   -4.3829   15.4105   -2.9308 H   0  0  0  0  0  0  0  0  0  0  0  0
   -5.0919   13.2164   -2.4537 H   0  0  0  0  0  0  0  0  0  0  0  0
   -3.4824   12.7010   -1.8862 H   0  0  0  0  0  0  0  0  0  0  0  0
   -4.2866   15.7554   -0.6603 H   0  0  0  0  0  0  0  0  0  0  0  0
   -0.5141   13.8844   -2.7404 H   0  0  0  0  0  0  0  0  0  0  0  0
   -3.9607   11.9677   -3.9955 H   0  0  0  0  0  0  0  0  0  0  0  0
  1  3  1  0  0  0  0
  1  8  2  0  0  0  0
  2  8  1  0  0  0  0
  2  9  2  0  0  0  0
  3  4  2  0  0  0  0
  3 10  1  0  0  0  0
  4  9  1  0  0  0  0
  4 11  1  0  0  0  0
  5  6  1  0  0  0  0
  5 11  1  0  0  0  0
  6  7  1  0  0  0  0
  6 10  1  0  0  0  0
  7 12  1  0  0  0  0
  1 13  1  0  0  0  0
  2 14  1  0  0  0  0
  5 15  1  0  0  0  0
  5 16  1  0  0  0  0
  6 17  1  0  0  0  0
  7 18  1  0  0  0  0
  7 19  1  0  0  0  0
 10 20  1  0  0  0  0
 11 21  1  0  0  0  0
 12 22  1  0  0  0  0
M  END
> <HYBRID receptor title>
5S18(A) > WOY(A-201)

> <HYBRID receptor filename>
5s18.oedu

> <HYBRID Chemgauss4 score>
-5.666428

> <HYBRID receptor title>
5S18(A) > WOY(A-201)

> <HYBRID receptor filename>
5s18.oedu

> <Dock Type>
Hybrid

$$$$
MOL0043_1
  -OEChem-06022418243D

 19 20  0     0  0  0  0  0  0999 V2000
   -3.0872   14.8746   -1.1591 C   0  0  0  0  0  0  0  0  0  0  0  0
   -3.9612   15.2993   -0.1936 C   0  0  0  0  0  0  0  0  0  0  0  0
   -3.4594   15.5416    1.0749 C   0  0  0  0  0  0  0  0  0  0  0  0
   -1.3882   14.9717    0.3669 C   0  0  0  0  0  0  0  0  0  0  0  0
   -5.4300   15.5223   -0.2336 C   0  0  0  0  0  0  0  0  0  0  0  0
   -5.6741   16.1901    1.1371 C   0  0  0  0  0  0  0  0  0  0  0  0
    0.0609   14.7856    0.6682 C   0  0  0  0  0  0  0  0  0  0  0  0
   -1.7741   14.7038   -0.9034 N   0  0  0  0  0  0  0  0  0  0  0  0
   -2.1640   15.3852    1.3927 N   0  0  0  0  0  0  0  0  0  0  0  0
   -4.4852   15.9532    1.9386 N   0  0  0  0  0  0  0  0  0  0  0  0
    0.7932   14.3647   -0.4051 F   0  0  0  0  0  0  0  0  0  0  0  0
    0.6803   15.9246    1.0975 F   0  0  0  0  0  0  0  0  0  0  0  0
    0.2788   13.8591    1.6463 F   0  0  0  0  0  0  0  0  0  0  0  0
   -3.4060   14.6527   -2.1701 H   0  0  0  0  0  0  0  0  0  0  0  0
   -5.7240   16.1814   -1.0552 H   0  0  0  0  0  0  0  0  0  0  0  0
   -5.9592   14.5671   -0.3045 H   0  0  0  0  0  0  0  0  0  0  0  0
   -5.8159   17.2699    1.0093 H   0  0  0  0  0  0  0  0  0  0  0  0
   -6.5689   15.7882    1.6226 H   0  0  0  0  0  0  0  0  0  0  0  0
   -4.3432   16.2459    2.8928 H   0  0  0  0  0  0  0  0  0  0  0  0
  1  2  1  0  0  0  0
  1  8  2  0  0  0  0
  2  3  2  0  0  0  0
  2  5  1  0  0  0  0
  3  9  1  0  0  0  0
  3 10  1  0  0  0  0
  4  7  1  0  0  0  0
  4  8  1  0  0  0  0
  4  9  2  0  0  0  0
  5  6  1  0  0  0  0
  6 10  1  0  0  0  0
  7 11  1  0  0  0  0
  7 12  1  0  0  0  0
  7 13  1  0  0  0  0
  1 14  1  0  0  0  0
  5 15  1  0  0  0  0
  5 16  1  0  0  0  0
  6 17  1  0  0  0  0
  6 18  1  0  0  0  0
 10 19  1  0  0  0  0
M  END
> <HYBRID receptor title>
5S18(A) > WOY(A-201)

> <HYBRID receptor filename>
5s18.oedu

> <HYBRID Chemgauss4 score>
-5.663140

> <HYBRID receptor title>
5S18(A) > WOY(A-201)

> <HYBRID receptor filename>
5s18.oedu

> <Dock Type>
Hybrid

$$$$
MOL0199_4
  -OEChem-06022418243D

 23 24  0     1  0  0  0  0  0999 V2000
   -0.2464   14.9470    0.0021 C   0  0  0  0  0  0  0  0  0  0  0  0
   -1.4440   15.0629   -0.6946 C   0  0  0  0  0  0  0  0  0  0  0  0
   -0.3016   14.9162    1.3862 C   0  0  0  0  0  0  0  0  0  0  0  0
   -2.5914   15.1035    1.3882 C   0  0  0  0  0  0  0  0  0  0  0  0
   -2.6434   15.1433    0.0042 C   0  0  0  0  0  0  0  0  0  0  0  0
   -4.0360   14.6022   -2.0970 C   0  0  0  0  0  0  0  0  0  0  0  0
   -5.5265   14.5143   -2.3733 C   0  0  0  0  0  0  0  0  0  0  0  0
   -5.1642   14.6178   -0.0354 C   0  0  0  0  0  0  0  0  0  0  0  0
   -3.9645   15.2696   -0.7253 C   0  0  1  0  0  0  0  0  0  0  0  0
   -1.4473   14.9917    2.0998 N   0  0  0  0  0  0  0  0  0  0  0  0
   -6.1954   14.4656   -1.0685 N   0  0  0  0  0  0  0  0  0  0  0  0
    0.7005   14.8826   -0.5217 H   0  0  0  0  0  0  0  0  0  0  0  0
   -1.4333   15.0897   -1.7808 H   0  0  0  0  0  0  0  0  0  0  0  0
    0.6050   14.8272    1.9757 H   0  0  0  0  0  0  0  0  0  0  0  0
   -3.4949   15.1621    1.9872 H   0  0  0  0  0  0  0  0  0  0  0  0
   -3.5622   13.6206   -2.1421 H   0  0  0  0  0  0  0  0  0  0  0  0
   -3.5596   15.2471   -2.8405 H   0  0  0  0  0  0  0  0  0  0  0  0
   -5.8877   15.3670   -2.9787 H   0  0  0  0  0  0  0  0  0  0  0  0
   -5.7675   13.5984   -2.9477 H   0  0  0  0  0  0  0  0  0  0  0  0
   -4.9204   13.6240    0.3855 H   0  0  0  0  0  0  0  0  0  0  0  0
   -5.5352   15.2290    0.8064 H   0  0  0  0  0  0  0  0  0  0  0  0
   -4.1748   16.3579   -0.8627 H   0  0  0  0  0  0  0  0  0  0  0  0
   -6.8404   15.2654   -1.0044 H   0  0  0  0  0  0  0  0  0  0  0  0
  1  2  2  0  0  0  0
  1  3  1  0  0  0  0
  2  5  1  0  0  0  0
  3 10  2  0  0  0  0
  4  5  2  0  0  0  0
  4 10  1  0  0  0  0
  5  9  1  0  0  0  0
  6  7  1  0  0  0  0
  6  9  1  0  0  0  0
  7 11  1  0  0  0  0
  8  9  1  0  0  0  0
  8 11  1  0  0  0  0
  1 12  1  0  0  0  0
  2 13  1  0  0  0  0
  3 14  1  0  0  0  0
  4 15  1  0  0  0  0
  6 16  1  0  0  0  0
  6 17  1  0  0  0  0
  7 18  1  0  0  0  0
  7 19  1  0  0  0  0
  8 20  1  0  0  0  0
  8 21  1  0  0  0  0
  9 22  1  0  0  0  0
 11 23  1  0  0  0  0
M  END
> <HYBRID receptor title>
5S18(A) > WOY(A-201)

> <HYBRID receptor filename>
5s18.oedu

> <HYBRID Chemgauss4 score>
-5.656481

> <HYBRID receptor title>
5S18(A) > WOY(A-201)

> <HYBRID receptor filename>
5s18.oedu

> <Dock Type>
Hybrid

$$$$
MOL0184_1
  -OEChem-06022418243D

 22 23  0     1  0  0  0  0  0999 V2000
   -0.3404   14.9217    1.0372 C   0  0  0  0  0  0  0  0  0  0  0  0
   -2.5990   14.9588    1.2760 C   0  0  0  0  0  0  0  0  0  0  0  0
   -0.4544   14.6392   -0.3133 C   0  0  0  0  0  0  0  0  0  0  0  0
   -1.7526   14.5507   -0.8037 C   0  0  0  0  0  0  0  0  0  0  0  0
    0.7409   14.5105   -1.2089 C   0  0  0  0  0  0  0  0  0  0  0  0
   -1.9824   14.2179   -2.2549 C   0  0  0  0  0  0  0  0  0  0  0  0
   -0.7371   14.4755   -3.1205 C   0  0  2  0  0  0  0  0  0  0  0  0
   -0.9229   13.8918   -4.5192 C   0  0  0  0  0  0  0  0  0  0  0  0
   -1.3945   15.0835    1.8625 N   0  0  0  0  0  0  0  0  0  0  0  0
   -2.8459   14.6972   -0.0216 N   0  0  0  0  0  0  0  0  0  0  0  0
    0.4491   13.8691   -2.4978 N   0  0  0  0  0  0  0  0  0  0  0  0
    0.6307   15.0319    1.5095 H   0  0  0  0  0  0  0  0  0  0  0  0
   -3.4636   15.0814    1.9167 H   0  0  0  0  0  0  0  0  0  0  0  0
    1.1580   15.5097   -1.3848 H   0  0  0  0  0  0  0  0  0  0  0  0
    1.5099   13.9144   -0.7046 H   0  0  0  0  0  0  0  0  0  0  0  0
   -2.2732   13.1609   -2.3108 H   0  0  0  0  0  0  0  0  0  0  0  0
   -2.8222   14.8121   -2.6342 H   0  0  0  0  0  0  0  0  0  0  0  0
   -0.5762   15.5572   -3.2232 H   0  0  0  0  0  0  0  0  0  0  0  0
   -1.0850   12.8173   -4.4521 H   0  0  0  0  0  0  0  0  0  0  0  0
   -0.0345   14.0817   -5.1192 H   0  0  0  0  0  0  0  0  0  0  0  0
   -1.7838   14.3532   -5.0002 H   0  0  0  0  0  0  0  0  0  0  0  0
    1.2569   13.9687   -3.1120 H   0  0  0  0  0  0  0  0  0  0  0  0
  1  3  1  0  0  0  0
  1  9  2  0  0  0  0
  2  9  1  0  0  0  0
  2 10  2  0  0  0  0
  3  4  2  0  0  0  0
  3  5  1  0  0  0  0
  4  6  1  0  0  0  0
  4 10  1  0  0  0  0
  5 11  1  0  0  0  0
  6  7  1  0  0  0  0
  7  8  1  0  0  0  0
  7 11  1  0  0  0  0
  1 12  1  0  0  0  0
  2 13  1  0  0  0  0
  5 14  1  0  0  0  0
  5 15  1  0  0  0  0
  6 16  1  0  0  0  0
  6 17  1  0  0  0  0
  7 18  1  0  0  0  0
  8 19  1  0  0  0  0
  8 20  1  0  0  0  0
  8 21  1  0  0  0  0
 11 22  1  0  0  0  0
M  END
> <HYBRID receptor title>
5S18(A) > WOY(A-201)

> <HYBRID receptor filename>
5s18.oedu

> <HYBRID Chemgauss4 score>
-5.636277

> <HYBRID receptor title>
5S18(A) > WOY(A-201)

> <HYBRID receptor filename>
5s18.oedu

> <Dock Type>
Hybrid

$$$$
MOL0090_4
  -OEChem-06022418243D

 19 20  0     0  0  0  0  0  0999 V2000
   -0.0474   15.0705    1.1876 C   0  0  0  0  0  0  0  0  0  0  0  0
    0.0178   14.9242   -0.1806 C   0  0  0  0  0  0  0  0  0  0  0  0
   -2.3275   14.9227    1.0948 C   0  0  0  0  0  0  0  0  0  0  0  0
   -2.2625   14.7772   -0.2734 C   0  0  0  0  0  0  0  0  0  0  0  0
   -3.6797   15.5392   -2.4327 C   0  0  0  0  0  0  0  0  0  0  0  0
   -3.5776   13.4653   -2.2654 C   0  0  0  0  0  0  0  0  0  0  0  0
   -3.5367   14.5977   -1.2155 C   0  0  0  0  0  0  0  0  0  0  0  0
   -1.2212   15.0722    1.8499 N   0  0  0  0  0  0  0  0  0  0  0  0
   -1.0887   14.7750   -0.9357 N   0  0  0  0  0  0  0  0  0  0  0  0
   -3.2291   14.4444   -3.3133 N   0  0  0  0  0  0  0  0  0  0  0  0
    0.8421   15.1905    1.7936 H   0  0  0  0  0  0  0  0  0  0  0  0
    0.9614   14.9228   -0.7120 H   0  0  0  0  0  0  0  0  0  0  0  0
   -3.2691   14.9246    1.6307 H   0  0  0  0  0  0  0  0  0  0  0  0
   -4.6964   15.9016   -2.6356 H   0  0  0  0  0  0  0  0  0  0  0  0
   -3.0025   16.4074   -2.4354 H   0  0  0  0  0  0  0  0  0  0  0  0
   -2.8194   12.6775   -2.1361 H   0  0  0  0  0  0  0  0  0  0  0  0
   -4.5527   12.9777   -2.4006 H   0  0  0  0  0  0  0  0  0  0  0  0
   -4.4487   14.6114   -0.5870 H   0  0  0  0  0  0  0  0  0  0  0  0
   -3.8045   14.3484   -4.1576 H   0  0  0  0  0  0  0  0  0  0  0  0
  1  2  1  0  0  0  0
  1  8  2  0  0  0  0
  2  9  2  0  0  0  0
  3  4  2  0  0  0  0
  3  8  1  0  0  0  0
  4  7  1  0  0  0  0
  4  9  1  0  0  0  0
  5  7  1  0  0  0  0
  5 10  1  0  0  0  0
  6  7  1  0  0  0  0
  6 10  1  0  0  0  0
  1 11  1  0  0  0  0
  2 12  1  0  0  0  0
  3 13  1  0  0  0  0
  5 14  1  0  0  0  0
  5 15  1  0  0  0  0
  6 16  1  0  0  0  0
  6 17  1  0  0  0  0
  7 18  1  0  0  0  0
 10 19  1  0  0  0  0
M  END
> <HYBRID receptor title>
5S18(A) > WOY(A-201)

> <HYBRID receptor filename>
5s18.oedu

> <HYBRID Chemgauss4 score>
-5.625389

> <HYBRID receptor title>
5S18(A) > WOY(A-201)

> <HYBRID receptor filename>
5s18.oedu

> <Dock Type>
Hybrid

$$$$
MOL0113_1
  -OEChem-06022418243D

 20 21  0     0  0  0  0  0  0999 V2000
   -1.4031   14.5382   -0.9637 C   0  0  0  0  0  0  0  0  0  0  0  0
   -0.1716   14.4910   -0.3199 C   0  0  0  0  0  0  0  0  0  0  0  0
   -2.5175   14.8330   -0.2032 C   0  0  0  0  0  0  0  0  0  0  0  0
   -0.1302   14.7362    1.0505 C   0  0  0  0  0  0  0  0  0  0  0  0
   -2.3907   15.0634    1.1633 C   0  0  0  0  0  0  0  0  0  0  0  0
   -3.9478   14.9238   -0.6181 C   0  0  0  0  0  0  0  0  0  0  0  0
   -4.6171   15.4494    0.6692 C   0  0  0  0  0  0  0  0  0  0  0  0
    1.1849   14.6868    1.7559 C   0  0  0  0  0  0  0  0  0  0  0  0
   -1.2134   15.0209    1.8146 N   0  0  0  0  0  0  0  0  0  0  0  0
   -3.6404   15.3320    1.7369 N   0  0  0  0  0  0  0  0  0  0  0  0
   -1.4811   14.3470   -2.0280 H   0  0  0  0  0  0  0  0  0  0  0  0
    0.7298   14.2644   -0.8800 H   0  0  0  0  0  0  0  0  0  0  0  0
   -4.0864   15.6192   -1.4509 H   0  0  0  0  0  0  0  0  0  0  0  0
   -4.3300   13.9329   -0.8829 H   0  0  0  0  0  0  0  0  0  0  0  0
   -4.8978   16.5021    0.5451 H   0  0  0  0  0  0  0  0  0  0  0  0
   -5.5269   14.8866    0.9020 H   0  0  0  0  0  0  0  0  0  0  0  0
    1.6558   15.6767    1.7520 H   0  0  0  0  0  0  0  0  0  0  0  0
    1.0649   14.3610    2.7966 H   0  0  0  0  0  0  0  0  0  0  0  0
    1.8663   13.9738    1.2750 H   0  0  0  0  0  0  0  0  0  0  0  0
   -3.7836   15.5784    2.7038 H   0  0  0  0  0  0  0  0  0  0  0  0
  1  2  2  0  0  0  0
  1  3  1  0  0  0  0
  2  4  1  0  0  0  0
  3  5  2  0  0  0  0
  3  6  1  0  0  0  0
  4  8  1  0  0  0  0
  4  9  2  0  0  0  0
  5  9  1  0  0  0  0
  5 10  1  0  0  0  0
  6  7  1  0  0  0  0
  7 10  1  0  0  0  0
  1 11  1  0  0  0  0
  2 12  1  0  0  0  0
  6 13  1  0  0  0  0
  6 14  1  0  0  0  0
  7 15  1  0  0  0  0
  7 16  1  0  0  0  0
  8 17  1  0  0  0  0
  8 18  1  0  0  0  0
  8 19  1  0  0  0  0
 10 20  1  0  0  0  0
M  END
> <HYBRID receptor title>
5S18(A) > WOY(A-201)

> <HYBRID receptor filename>
5s18.oedu

> <HYBRID Chemgauss4 score>
-5.618387

> <HYBRID receptor title>
5S18(A) > WOY(A-201)

> <HYBRID receptor filename>
5s18.oedu

> <Dock Type>
Hybrid

$$$$
MOL0198_1
  -OEChem-06022418243D

 20 21  0     1  0  0  0  0  0999 V2000
   -3.0161   15.2517    1.3633 C   0  0  0  0  0  0  0  0  0  0  0  0
   -0.8497   14.7326    0.8570 C   0  0  0  0  0  0  0  0  0  0  0  0
   -3.3631   15.0258    0.0568 C   0  0  0  0  0  0  0  0  0  0  0  0
   -2.3643   14.6460   -0.8223 C   0  0  0  0  0  0  0  0  0  0  0  0
   -4.6768   15.1356   -0.6336 C   0  0  0  0  0  0  0  0  0  0  0  0
   -4.3252   14.6640   -2.0709 C   0  0  2  0  0  0  0  0  0  0  0  0
   -5.0359   13.3664   -2.4381 C   0  0  0  0  0  0  0  0  0  0  0  0
   -1.7475   15.1086    1.7978 N   0  0  0  0  0  0  0  0  0  0  0  0
   -1.0829   14.4887   -0.4510 N   0  0  0  0  0  0  0  0  0  0  0  0
   -2.8823   14.4582   -2.1084 N   0  0  0  0  0  0  0  0  0  0  0  0
   -4.6733   13.0111   -3.7603 O   0  0  0  0  0  0  0  0  0  0  0  0
   -3.7408   15.5566    2.1084 H   0  0  0  0  0  0  0  0  0  0  0  0
    0.1739   14.6143    1.1925 H   0  0  0  0  0  0  0  0  0  0  0  0
   -5.4307   14.5037   -0.1543 H   0  0  0  0  0  0  0  0  0  0  0  0
   -5.0105   16.1785   -0.6407 H   0  0  0  0  0  0  0  0  0  0  0  0
   -4.6057   15.4396   -2.7933 H   0  0  0  0  0  0  0  0  0  0  0  0
   -6.1163   13.5051   -2.3866 H   0  0  0  0  0  0  0  0  0  0  0  0
   -4.7354   12.5701   -1.7565 H   0  0  0  0  0  0  0  0  0  0  0  0
   -2.3446   14.1611   -2.9075 H   0  0  0  0  0  0  0  0  0  0  0  0
   -5.1378   12.1832   -3.9706 H   0  0  0  0  0  0  0  0  0  0  0  0
  1  3  1  0  0  0  0
  1  8  2  0  0  0  0
  2  8  1  0  0  0  0
  2  9  2  0  0  0  0
  3  4  2  0  0  0  0
  3  5  1  0  0  0  0
  4  9  1  0  0  0  0
  4 10  1  0  0  0  0
  5  6  1  0  0  0  0
  6  7  1  0  0  0  0
  6 10  1  0  0  0  0
  7 11  1  0  0  0  0
  1 12  1  0  0  0  0
  2 13  1  0  0  0  0
  5 14  1  0  0  0  0
  5 15  1  0  0  0  0
  6 16  1  0  0  0  0
  7 17  1  0  0  0  0
  7 18  1  0  0  0  0
 10 19  1  0  0  0  0
 11 20  1  0  0  0  0
M  END
> <HYBRID receptor title>
5S18(A) > WOY(A-201)

> <HYBRID receptor filename>
5s18.oedu

> <HYBRID Chemgauss4 score>
-5.612021

> <HYBRID receptor title>
5S18(A) > WOY(A-201)

> <HYBRID receptor filename>
5s18.oedu

> <Dock Type>
Hybrid

$$$$
MOL0142_1
  -OEChem-06022418243D

 21 22  0     1  0  0  0  0  0999 V2000
   -0.6206   14.6769   -0.7861 C   0  0  0  0  0  0  0  0  0  0  0  0
    0.2501   15.0059    1.2788 C   0  0  0  0  0  0  0  0  0  0  0  0
   -1.9068   14.6066   -0.2750 C   0  0  0  0  0  0  0  0  0  0  0  0
   -2.0290   14.7904    1.1044 C   0  0  0  0  0  0  0  0  0  0  0  0
   -4.2786   14.0950   -0.4582 C   0  0  0  0  0  0  0  0  0  0  0  0
   -4.4698   14.9059    0.8307 C   0  0  1  0  0  0  0  0  0  0  0  0
   -5.6943   14.4546    1.5771 C   0  0  0  0  0  0  0  0  0  0  0  0
    0.4819   14.8721   -0.0367 N   0  0  0  0  0  0  0  0  0  0  0  0
   -0.9460   14.9758    1.8967 N   0  0  0  0  0  0  0  0  0  0  0  0
   -3.0096   14.4116   -1.0856 N   0  0  0  0  0  0  0  0  0  0  0  0
   -3.2958   14.7796    1.6829 N   0  0  0  0  0  0  0  0  0  0  0  0
   -0.4315   14.5674   -1.8500 H   0  0  0  0  0  0  0  0  0  0  0  0
    1.1163   15.1569    1.9112 H   0  0  0  0  0  0  0  0  0  0  0  0
   -4.3133   13.0189   -0.2454 H   0  0  0  0  0  0  0  0  0  0  0  0
   -5.0905   14.3092   -1.1622 H   0  0  0  0  0  0  0  0  0  0  0  0
   -4.5882   15.9697    0.5633 H   0  0  0  0  0  0  0  0  0  0  0  0
   -5.5967   13.4043    1.8507 H   0  0  0  0  0  0  0  0  0  0  0  0
   -6.5775   14.5773    0.9509 H   0  0  0  0  0  0  0  0  0  0  0  0
   -5.8167   15.0473    2.4833 H   0  0  0  0  0  0  0  0  0  0  0  0
   -2.8761   14.2092   -2.0689 H   0  0  0  0  0  0  0  0  0  0  0  0
   -3.3648   14.9510    2.6788 H   0  0  0  0  0  0  0  0  0  0  0  0
  1  3  1  0  0  0  0
  1  8  2  0  0  0  0
  2  8  1  0  0  0  0
  2  9  2  0  0  0  0
  3  4  2  0  0  0  0
  3 10  1  0  0  0  0
  4  9  1  0  0  0  0
  4 11  1  0  0  0  0
  5  6  1  0  0  0  0
  5 10  1  0  0  0  0
  6  7  1  0  0  0  0
  6 11  1  0  0  0  0
  1 12  1  0  0  0  0
  2 13  1  0  0  0  0
  5 14  1  0  0  0  0
  5 15  1  0  0  0  0
  6 16  1  0  0  0  0
  7 17  1  0  0  0  0
  7 18  1  0  0  0  0
  7 19  1  0  0  0  0
 10 20  1  0  0  0  0
 11 21  1  0  0  0  0
M  END
> <HYBRID receptor title>
5S18(A) > WOY(A-201)

> <HYBRID receptor filename>
5s18.oedu

> <HYBRID Chemgauss4 score>
-5.598495

> <HYBRID receptor title>
5S18(A) > WOY(A-201)

> <HYBRID receptor filename>
5s18.oedu

> <Dock Type>
Hybrid

$$$$
MOL0002_1
  -OEChem-06022418243D

 13 14  0     0  0  0  0  0  0999 V2000
    0.0878   14.8217    1.4703 C   0  0  0  0  0  0  0  0  0  0  0  0
   -2.1633   15.0735    1.0025 C   0  0  0  0  0  0  0  0  0  0  0  0
    0.8739   14.2466   -1.9695 C   0  0  0  0  0  0  0  0  0  0  0  0
    0.2597   14.6145    0.1158 C   0  0  0  0  0  0  0  0  0  0  0  0
   -0.8236   14.6488   -0.7519 C   0  0  0  0  0  0  0  0  0  0  0  0
   -1.1658   15.0577    1.9183 N   0  0  0  0  0  0  0  0  0  0  0  0
   -2.0903   14.8828   -0.3325 N   0  0  0  0  0  0  0  0  0  0  0  0
   -0.4286   14.4187   -2.0451 N   0  0  0  0  0  0  0  0  0  0  0  0
    1.3359   14.3557   -0.6845 N   0  0  0  0  0  0  0  0  0  0  0  0
    0.8901   14.8071    2.1944 H   0  0  0  0  0  0  0  0  0  0  0  0
   -3.1560   15.2652    1.3959 H   0  0  0  0  0  0  0  0  0  0  0  0
    1.5364   14.0413   -2.7981 H   0  0  0  0  0  0  0  0  0  0  0  0
    2.2979   14.2617   -0.3868 H   0  0  0  0  0  0  0  0  0  0  0  0
  1  4  1  0  0  0  0
  1  6  2  0  0  0  0
  2  6  1  0  0  0  0
  2  7  2  0  0  0  0
  3  8  2  0  0  0  0
  3  9  1  0  0  0  0
  4  5  2  0  0  0  0
  4  9  1  0  0  0  0
  5  7  1  0  0  0  0
  5  8  1  0  0  0  0
  1 10  1  0  0  0  0
  2 11  1  0  0  0  0
  3 12  1  0  0  0  0
  9 13  1  0  0  0  0
M  END
> <HYBRID receptor title>
5S18(A) > WOY(A-201)

> <HYBRID receptor filename>
5s18.oedu

> <HYBRID Chemgauss4 score>
-5.586274

> <HYBRID receptor title>
5S18(A) > WOY(A-201)

> <HYBRID receptor filename>
5s18.oedu

> <Dock Type>
Hybrid

$$$$
MOL0013_1
  -OEChem-06022418243D

 17 18  0     0  0  0  0  0  0999 V2000
   -2.9184   14.6477    1.4576 C   0  0  0  0  0  0  0  0  0  0  0  0
   -0.7056   14.8773    0.9060 C   0  0  0  0  0  0  0  0  0  0  0  0
   -3.2340   14.5652    0.1281 C   0  0  0  0  0  0  0  0  0  0  0  0
   -2.1856   14.6610   -0.7701 C   0  0  0  0  0  0  0  0  0  0  0  0
   -4.5454   14.4338   -0.5595 C   0  0  0  0  0  0  0  0  0  0  0  0
   -2.6928   14.6102   -2.1826 C   0  0  0  0  0  0  0  0  0  0  0  0
   -4.0914   14.0094   -1.9671 C   0  0  0  0  0  0  0  0  0  0  0  0
   -1.6447   14.7998    1.8814 N   0  0  0  0  0  0  0  0  0  0  0  0
   -0.8999   14.8219   -0.4285 N   0  0  0  0  0  0  0  0  0  0  0  0
   -3.6716   14.5964    2.2347 H   0  0  0  0  0  0  0  0  0  0  0  0
    0.3183   15.0010    1.2382 H   0  0  0  0  0  0  0  0  0  0  0  0
   -5.1887   13.6772   -0.1023 H   0  0  0  0  0  0  0  0  0  0  0  0
   -5.0602   15.3997   -0.5854 H   0  0  0  0  0  0  0  0  0  0  0  0
   -2.7548   15.6232   -2.5928 H   0  0  0  0  0  0  0  0  0  0  0  0
   -2.0718   13.9814   -2.8259 H   0  0  0  0  0  0  0  0  0  0  0  0
   -4.0202   12.9133   -2.0057 H   0  0  0  0  0  0  0  0  0  0  0  0
   -4.8005   14.3129   -2.7438 H   0  0  0  0  0  0  0  0  0  0  0  0
  1  3  1  0  0  0  0
  1  8  2  0  0  0  0
  2  8  1  0  0  0  0
  2  9  2  0  0  0  0
  3  4  2  0  0  0  0
  3  5  1  0  0  0  0
  4  6  1  0  0  0  0
  4  9  1  0  0  0  0
  5  7  1  0  0  0  0
  6  7  1  0  0  0  0
  1 10  1  0  0  0  0
  2 11  1  0  0  0  0
  5 12  1  0  0  0  0
  5 13  1  0  0  0  0
  6 14  1  0  0  0  0
  6 15  1  0  0  0  0
  7 16  1  0  0  0  0
  7 17  1  0  0  0  0
M  END
> <HYBRID receptor title>
5S18(A) > WOY(A-201)

> <HYBRID receptor filename>
5s18.oedu

> <HYBRID Chemgauss4 score>
-5.581268

> <HYBRID receptor title>
5S18(A) > WOY(A-201)

> <HYBRID receptor filename>
5s18.oedu

> <Dock Type>
Hybrid

$$$$
MOL0004_1
  -OEChem-06022418243D

 16 17  0     0  0  0  0  0  0999 V2000
   -1.4323   14.3094   -1.0099 C   0  0  0  0  0  0  0  0  0  0  0  0
   -0.1278   14.9475    0.7552 C   0  0  0  0  0  0  0  0  0  0  0  0
   -2.5496   14.5679   -0.2608 C   0  0  0  0  0  0  0  0  0  0  0  0
   -2.3709   15.0226    1.0358 C   0  0  0  0  0  0  0  0  0  0  0  0
   -3.9941   14.4065   -0.5709 C   0  0  0  0  0  0  0  0  0  0  0  0
   -4.6461   15.0894    0.6509 C   0  0  0  0  0  0  0  0  0  0  0  0
   -0.1897   14.4974   -0.5207 N   0  0  0  0  0  0  0  0  0  0  0  0
   -1.1603   15.2246    1.5810 N   0  0  0  0  0  0  0  0  0  0  0  0
   -3.6103   15.2223    1.6615 N   0  0  0  0  0  0  0  0  0  0  0  0
   -1.4909   13.9403   -2.0265 H   0  0  0  0  0  0  0  0  0  0  0  0
    0.8654   15.1017    1.1601 H   0  0  0  0  0  0  0  0  0  0  0  0
   -4.2732   14.9067   -1.5025 H   0  0  0  0  0  0  0  0  0  0  0  0
   -4.2582   13.3453   -0.6155 H   0  0  0  0  0  0  0  0  0  0  0  0
   -5.0127   16.0852    0.3741 H   0  0  0  0  0  0  0  0  0  0  0  0
   -5.4965   14.5101    1.0247 H   0  0  0  0  0  0  0  0  0  0  0  0
   -3.7261   15.6115    2.5844 H   0  0  0  0  0  0  0  0  0  0  0  0
  1  3  1  0  0  0  0
  1  7  2  0  0  0  0
  2  7  1  0  0  0  0
  2  8  2  0  0  0  0
  3  4  2  0  0  0  0
  3  5  1  0  0  0  0
  4  8  1  0  0  0  0
  4  9  1  0  0  0  0
  5  6  1  0  0  0  0
  6  9  1  0  0  0  0
  1 10  1  0  0  0  0
  2 11  1  0  0  0  0
  5 12  1  0  0  0  0
  5 13  1  0  0  0  0
  6 14  1  0  0  0  0
  6 15  1  0  0  0  0
  9 16  1  0  0  0  0
M  END
> <HYBRID receptor title>
5S18(A) > WOY(A-201)

> <HYBRID receptor filename>
5s18.oedu

> <HYBRID Chemgauss4 score>
-5.578490

> <HYBRID receptor title>
5S18(A) > WOY(A-201)

> <HYBRID receptor filename>
5s18.oedu

> <Dock Type>
Hybrid

$$$$
MOL0007_1
  -OEChem-06022418243D

 19 20  0     0  0  0  0  0  0999 V2000
   -2.6691   15.1425    1.2424 C   0  0  0  0  0  0  0  0  0  0  0  0
   -0.4147   14.9813    1.0146 C   0  0  0  0  0  0  0  0  0  0  0  0
   -2.8466   15.0404   -0.1263 C   0  0  0  0  0  0  0  0  0  0  0  0
   -1.6870   14.8847   -0.8785 C   0  0  0  0  0  0  0  0  0  0  0  0
   -4.2027   15.0242   -0.7631 C   0  0  0  0  0  0  0  0  0  0  0  0
   -1.7704   14.8004   -2.3812 C   0  0  0  0  0  0  0  0  0  0  0  0
   -4.1347   15.2445   -2.2771 C   0  0  0  0  0  0  0  0  0  0  0  0
   -1.4635   15.1201    1.8460 N   0  0  0  0  0  0  0  0  0  0  0  0
   -0.4526   14.8633   -0.3265 N   0  0  0  0  0  0  0  0  0  0  0  0
   -3.0951   14.4019   -2.8714 N   0  0  0  0  0  0  0  0  0  0  0  0
   -3.5150   15.2509    1.9137 H   0  0  0  0  0  0  0  0  0  0  0  0
    0.5663   14.9605    1.4733 H   0  0  0  0  0  0  0  0  0  0  0  0
   -4.6987   14.0672   -0.5641 H   0  0  0  0  0  0  0  0  0  0  0  0
   -4.8068   15.8171   -0.3043 H   0  0  0  0  0  0  0  0  0  0  0  0
   -1.5186   15.7754   -2.8135 H   0  0  0  0  0  0  0  0  0  0  0  0
   -1.0177   14.0867   -2.7368 H   0  0  0  0  0  0  0  0  0  0  0  0
   -5.1038   15.0273   -2.7440 H   0  0  0  0  0  0  0  0  0  0  0  0
   -3.9152   16.2974   -2.4849 H   0  0  0  0  0  0  0  0  0  0  0  0
   -3.1213   14.5004   -3.8865 H   0  0  0  0  0  0  0  0  0  0  0  0
  1  3  1  0  0  0  0
  1  8  2  0  0  0  0
  2  8  1  0  0  0  0
  2  9  2  0  0  0  0
  3  4  2  0  0  0  0
  3  5  1  0  0  0  0
  4  6  1  0  0  0  0
  4  9  1  0  0  0  0
  5  7  1  0  0  0  0
  6 10  1  0  0  0  0
  7 10  1  0  0  0  0
  1 11  1  0  0  0  0
  2 12  1  0  0  0  0
  5 13  1  0  0  0  0
  5 14  1  0  0  0  0
  6 15  1  0  0  0  0
  6 16  1  0  0  0  0
  7 17  1  0  0  0  0
  7 18  1  0  0  0  0
 10 19  1  0  0  0  0
M  END
> <HYBRID receptor title>
5S18(A) > WOY(A-201)

> <HYBRID receptor filename>
5s18.oedu

> <HYBRID Chemgauss4 score>
-5.571952

> <HYBRID receptor title>
5S18(A) > WOY(A-201)

> <HYBRID receptor filename>
5s18.oedu

> <Dock Type>
Hybrid

$$$$
MOL0105_1
  -OEChem-06022418243D

 19 20  0     1  0  0  0  0  0999 V2000
   -2.8733   14.7547    1.2919 C   0  0  0  0  0  0  0  0  0  0  0  0
   -0.6317   14.9653    0.8652 C   0  0  0  0  0  0  0  0  0  0  0  0
   -3.1063   14.5940   -0.0477 C   0  0  0  0  0  0  0  0  0  0  0  0
   -2.0041   14.6393   -0.8861 C   0  0  0  0  0  0  0  0  0  0  0  0
   -4.3764   14.4248   -0.8036 C   0  0  0  0  0  0  0  0  0  0  0  0
   -3.8381   13.8994   -2.1462 C   0  0  0  0  0  0  0  0  0  0  0  0
   -2.4372   14.5240   -2.3255 C   0  0  2  0  0  0  0  0  0  0  0  0
   -1.6287   14.9369    1.7839 N   0  0  0  0  0  0  0  0  0  0  0  0
   -0.7431   14.8337   -0.4734 N   0  0  0  0  0  0  0  0  0  0  0  0
   -1.5765   13.6853   -3.1416 N   0  0  0  0  0  0  0  0  0  0  0  0
   -3.6734   14.7472    2.0221 H   0  0  0  0  0  0  0  0  0  0  0  0
    0.3695   15.1145    1.2521 H   0  0  0  0  0  0  0  0  0  0  0  0
   -5.0537   13.7051   -0.3359 H   0  0  0  0  0  0  0  0  0  0  0  0
   -4.8781   15.3896   -0.9283 H   0  0  0  0  0  0  0  0  0  0  0  0
   -3.7642   12.8031   -2.0882 H   0  0  0  0  0  0  0  0  0  0  0  0
   -4.5080   14.1299   -2.9815 H   0  0  0  0  0  0  0  0  0  0  0  0
   -2.5207   15.5288   -2.7560 H   0  0  0  0  0  0  0  0  0  0  0  0
   -0.8080   13.3826   -2.5868 H   0  0  0  0  0  0  0  0  0  0  0  0
   -2.1029   12.9027   -3.4582 H   0  0  0  0  0  0  0  0  0  0  0  0
  1  3  1  0  0  0  0
  1  8  2  0  0  0  0
  2  8  1  0  0  0  0
  2  9  2  0  0  0  0
  3  4  2  0  0  0  0
  3  5  1  0  0  0  0
  4  7  1  0  0  0  0
  4  9  1  0  0  0  0
  5  6  1  0  0  0  0
  6  7  1  0  0  0  0
  7 10  1  0  0  0  0
  1 11  1  0  0  0  0
  2 12  1  0  0  0  0
  5 13  1  0  0  0  0
  5 14  1  0  0  0  0
  6 15  1  0  0  0  0
  6 16  1  0  0  0  0
  7 17  1  0  0  0  0
 10 18  1  0  0  0  0
 10 19  1  0  0  0  0
M  END
> <HYBRID receptor title>
5S18(A) > WOY(A-201)

> <HYBRID receptor filename>
5s18.oedu

> <HYBRID Chemgauss4 score>
-5.571404

> <HYBRID receptor title>
5S18(A) > WOY(A-201)

> <HYBRID receptor filename>
5s18.oedu

> <Dock Type>
Hybrid

$$$$
MOL0190_1
  -OEChem-06022418243D

 15 16  0     0  0  0  0  0  0999 V2000
   -2.8339   15.0368    1.3268 C   0  0  0  0  0  0  0  0  0  0  0  0
   -0.6514   14.9503    0.6341 C   0  0  0  0  0  0  0  0  0  0  0  0
   -3.2402   14.9375    0.0245 C   0  0  0  0  0  0  0  0  0  0  0  0
   -2.2579   14.8427   -0.9283 C   0  0  0  0  0  0  0  0  0  0  0  0
   -4.5717   14.8860   -0.6024 C   0  0  0  0  0  0  0  0  0  0  0  0
   -2.8884   14.7167   -2.2695 C   0  0  0  0  0  0  0  0  0  0  0  0
   -1.5262   15.0489    1.6660 N   0  0  0  0  0  0  0  0  0  0  0  0
   -0.9420   14.8420   -0.6794 N   0  0  0  0  0  0  0  0  0  0  0  0
   -4.2985   14.9461   -2.0260 O   0  0  0  0  0  0  0  0  0  0  0  0
   -3.5366   15.1107    2.1478 H   0  0  0  0  0  0  0  0  0  0  0  0
    0.3999   14.9593    0.8960 H   0  0  0  0  0  0  0  0  0  0  0  0
   -5.0905   13.9473   -0.3877 H   0  0  0  0  0  0  0  0  0  0  0  0
   -5.1970   15.7417   -0.3348 H   0  0  0  0  0  0  0  0  0  0  0  0
   -2.5248   15.4704   -2.9719 H   0  0  0  0  0  0  0  0  0  0  0  0
   -2.7621   13.7111   -2.6802 H   0  0  0  0  0  0  0  0  0  0  0  0
  1  3  1  0  0  0  0
  1  7  2  0  0  0  0
  2  7  1  0  0  0  0
  2  8  2  0  0  0  0
  3  4  2  0  0  0  0
  3  5  1  0  0  0  0
  4  6  1  0  0  0  0
  4  8  1  0  0  0  0
  5  9  1  0  0  0  0
  6  9  1  0  0  0  0
  1 10  1  0  0  0  0
  2 11  1  0  0  0  0
  5 12  1  0  0  0  0
  5 13  1  0  0  0  0
  6 14  1  0  0  0  0
  6 15  1  0  0  0  0
M  END
> <HYBRID receptor title>
5S18(A) > WOY(A-201)

> <HYBRID receptor filename>
5s18.oedu

> <HYBRID Chemgauss4 score>
-5.565245

> <HYBRID receptor title>
5S18(A) > WOY(A-201)

> <HYBRID receptor filename>
5s18.oedu

> <Dock Type>
Hybrid

$$$$
MOL0185_1
  -OEChem-06022418243D

 22 23  0     0  0  0  0  0  0999 V2000
   -3.2597   14.8895    1.0303 C   0  0  0  0  0  0  0  0  0  0  0  0
   -1.3647   14.5474   -0.8312 C   0  0  0  0  0  0  0  0  0  0  0  0
   -1.0297   14.7820    0.4970 C   0  0  0  0  0  0  0  0  0  0  0  0
   -3.5903   14.6448   -0.2826 C   0  0  0  0  0  0  0  0  0  0  0  0
   -0.2934   14.3030   -1.8566 C   0  0  0  0  0  0  0  0  0  0  0  0
    0.4088   14.9137    0.9167 C   0  0  0  0  0  0  0  0  0  0  0  0
    1.0823   14.7850   -1.3916 C   0  0  0  0  0  0  0  0  0  0  0  0
   -5.0170   14.5690   -0.7012 C   0  0  0  0  0  0  0  0  0  0  0  0
   -1.9792   14.9664    1.4412 N   0  0  0  0  0  0  0  0  0  0  0  0
   -2.6526   14.4667   -1.2327 N   0  0  0  0  0  0  0  0  0  0  0  0
    1.3522   14.3122   -0.0326 N   0  0  0  0  0  0  0  0  0  0  0  0
   -4.0082   15.0309    1.8011 H   0  0  0  0  0  0  0  0  0  0  0  0
   -0.2449   13.2335   -2.0913 H   0  0  0  0  0  0  0  0  0  0  0  0
   -0.5782   14.8309   -2.7752 H   0  0  0  0  0  0  0  0  0  0  0  0
    0.6582   15.9746    1.0313 H   0  0  0  0  0  0  0  0  0  0  0  0
    0.5329   14.4460    1.9007 H   0  0  0  0  0  0  0  0  0  0  0  0
    1.8679   14.4358   -2.0733 H   0  0  0  0  0  0  0  0  0  0  0  0
    1.1134   15.8795   -1.4102 H   0  0  0  0  0  0  0  0  0  0  0  0
   -5.3838   15.5602   -0.9982 H   0  0  0  0  0  0  0  0  0  0  0  0
   -5.1504   13.8828   -1.5488 H   0  0  0  0  0  0  0  0  0  0  0  0
   -5.6541   14.1938    0.1116 H   0  0  0  0  0  0  0  0  0  0  0  0
    2.3039   14.5696    0.2304 H   0  0  0  0  0  0  0  0  0  0  0  0
  1  4  1  0  0  0  0
  1  9  2  0  0  0  0
  2  3  2  0  0  0  0
  2  5  1  0  0  0  0
  2 10  1  0  0  0  0
  3  6  1  0  0  0  0
  3  9  1  0  0  0  0
  4  8  1  0  0  0  0
  4 10  2  0  0  0  0
  5  7  1  0  0  0  0
  6 11  1  0  0  0  0
  7 11  1  0  0  0  0
  1 12  1  0  0  0  0
  5 13  1  0  0  0  0
  5 14  1  0  0  0  0
  6 15  1  0  0  0  0
  6 16  1  0  0  0  0
  7 17  1  0  0  0  0
  7 18  1  0  0  0  0
  8 19  1  0  0  0  0
  8 20  1  0  0  0  0
  8 21  1  0  0  0  0
 11 22  1  0  0  0  0
M  END
> <HYBRID receptor title>
5S18(A) > WOY(A-201)

> <HYBRID receptor filename>
5s18.oedu

> <HYBRID Chemgauss4 score>
-5.546329

> <HYBRID receptor title>
5S18(A) > WOY(A-201)

> <HYBRID receptor filename>
5s18.oedu

> <Dock Type>
Hybrid

$$$$
MOL0219_1
  -OEChem-06022418243D

 23 24  0     0  0  0  0  0  0999 V2000
   -0.1756   14.7505    1.1431 C   0  0  0  0  0  0  0  0  0  0  0  0
   -0.0134   14.5648   -0.2044 C   0  0  0  0  0  0  0  0  0  0  0  0
   -1.1500   14.3855   -0.9763 C   0  0  0  0  0  0  0  0  0  0  0  0
   -2.4394   14.5913    0.8705 C   0  0  0  0  0  0  0  0  0  0  0  0
   -3.7627   14.6114    1.4714 C   0  0  0  0  0  0  0  0  0  0  0  0
   -4.9349   14.4512    0.8149 C   0  0  0  0  0  0  0  0  0  0  0  0
    1.2132   14.4711   -1.0382 C   0  0  0  0  0  0  0  0  0  0  0  0
    0.6149   14.4751   -2.4617 C   0  0  0  0  0  0  0  0  0  0  0  0
   -6.2754   14.4885    1.4740 C   0  0  0  0  0  0  0  0  0  0  0  0
   -1.3965   14.7728    1.7154 N   0  0  0  0  0  0  0  0  0  0  0  0
   -2.3917   14.3925   -0.4648 N   0  0  0  0  0  0  0  0  0  0  0  0
   -0.8046   14.1964   -2.3226 N   0  0  0  0  0  0  0  0  0  0  0  0
    0.6648   14.8851    1.8131 H   0  0  0  0  0  0  0  0  0  0  0  0
   -3.8078   14.7911    2.5519 H   0  0  0  0  0  0  0  0  0  0  0  0
   -4.9421   14.2941   -0.2600 H   0  0  0  0  0  0  0  0  0  0  0  0
    1.8810   15.3235   -0.8847 H   0  0  0  0  0  0  0  0  0  0  0  0
    1.7409   13.5336   -0.8362 H   0  0  0  0  0  0  0  0  0  0  0  0
    0.7475   15.4612   -2.9228 H   0  0  0  0  0  0  0  0  0  0  0  0
    1.1059   13.7357   -3.1025 H   0  0  0  0  0  0  0  0  0  0  0  0
   -6.5645   13.4805    1.7865 H   0  0  0  0  0  0  0  0  0  0  0  0
   -6.2353   15.1257    2.3628 H   0  0  0  0  0  0  0  0  0  0  0  0
   -7.0548   14.8769    0.8109 H   0  0  0  0  0  0  0  0  0  0  0  0
   -1.4704   14.1114   -3.0746 H   0  0  0  0  0  0  0  0  0  0  0  0
  1  2  1  0  0  0  0
  1 10  2  0  0  0  0
  2  3  2  0  0  0  0
  2  7  1  0  0  0  0
  3 11  1  0  0  0  0
  3 12  1  0  0  0  0
  4  5  1  0  0  0  0
  4 10  1  0  0  0  0
  4 11  2  0  0  0  0
  5  6  2  0  0  0  0
  6  9  1  0  0  0  0
  7  8  1  0  0  0  0
  8 12  1  0  0  0  0
  1 13  1  0  0  0  0
  5 14  1  0  0  0  0
  6 15  1  0  0  0  0
  7 16  1  0  0  0  0
  7 17  1  0  0  0  0
  8 18  1  0  0  0  0
  8 19  1  0  0  0  0
  9 20  1  0  0  0  0
  9 21  1  0  0  0  0
  9 22  1  0  0  0  0
 12 23  1  0  0  0  0
M  END
> <HYBRID receptor title>
5S18(A) > WOY(A-201)

> <HYBRID receptor filename>
5s18.oedu

> <HYBRID Chemgauss4 score>
-5.533278

> <HYBRID receptor title>
5S18(A) > WOY(A-201)

> <HYBRID receptor filename>
5s18.oedu

> <Dock Type>
Hybrid

$$$$
MOL0127_2
  -OEChem-06022418243D

 23 24  0     0  0  0  0  0  0999 V2000
   -3.6411   15.0199    1.3261 C   0  0  0  0  0  0  0  0  0  0  0  0
   -4.0760   15.0111    0.0119 C   0  0  0  0  0  0  0  0  0  0  0  0
   -3.0777   14.9362   -0.9540 C   0  0  0  0  0  0  0  0  0  0  0  0
   -1.4695   14.9288    0.6648 C   0  0  0  0  0  0  0  0  0  0  0  0
   -5.5315   15.0061   -0.3513 C   0  0  0  0  0  0  0  0  0  0  0  0
   -3.4489   14.9492   -2.4134 C   0  0  0  0  0  0  0  0  0  0  0  0
   -4.9176   14.5835   -2.6426 C   0  0  0  0  0  0  0  0  0  0  0  0
    0.8179   16.3861    0.2676 C   0  0  0  0  0  0  0  0  0  0  0  0
   -2.3423   14.9839    1.6874 N   0  0  0  0  0  0  0  0  0  0  0  0
   -1.7606   14.9046   -0.6496 N   0  0  0  0  0  0  0  0  0  0  0  0
   -5.7926   15.3550   -1.7549 N   0  0  0  0  0  0  0  0  0  0  0  0
    0.2584   14.8821    1.0969 S   0  0  0  0  0  0  0  0  0  0  0  0
   -4.3446   15.0593    2.1517 H   0  0  0  0  0  0  0  0  0  0  0  0
   -5.9558   14.0112   -0.1643 H   0  0  0  0  0  0  0  0  0  0  0  0
   -6.0649   15.7111    0.3007 H   0  0  0  0  0  0  0  0  0  0  0  0
   -3.2510   15.9407   -2.8346 H   0  0  0  0  0  0  0  0  0  0  0  0
   -2.8034   14.2309   -2.9328 H   0  0  0  0  0  0  0  0  0  0  0  0
   -5.2032   14.7557   -3.6908 H   0  0  0  0  0  0  0  0  0  0  0  0
   -5.0626   13.5117   -2.4536 H   0  0  0  0  0  0  0  0  0  0  0  0
    1.8898   16.5231    0.4297 H   0  0  0  0  0  0  0  0  0  0  0  0
    0.2834   17.2512    0.6678 H   0  0  0  0  0  0  0  0  0  0  0  0
    0.6252   16.3118   -0.8054 H   0  0  0  0  0  0  0  0  0  0  0  0
   -6.7640   15.1441   -1.9773 H   0  0  0  0  0  0  0  0  0  0  0  0
  1  2  1  0  0  0  0
  1  9  2  0  0  0  0
  2  3  2  0  0  0  0
  2  5  1  0  0  0  0
  3  6  1  0  0  0  0
  3 10  1  0  0  0  0
  4  9  1  0  0  0  0
  4 10  2  0  0  0  0
  4 12  1  0  0  0  0
  5 11  1  0  0  0  0
  6  7  1  0  0  0  0
  7 11  1  0  0  0  0
  8 12  1  0  0  0  0
  1 13  1  0  0  0  0
  5 14  1  0  0  0  0
  5 15  1  0  0  0  0
  6 16  1  0  0  0  0
  6 17  1  0  0  0  0
  7 18  1  0  0  0  0
  7 19  1  0  0  0  0
  8 20  1  0  0  0  0
  8 21  1  0  0  0  0
  8 22  1  0  0  0  0
 11 23  1  0  0  0  0
M  END
> <HYBRID receptor title>
5S18(A) > WOY(A-201)

> <HYBRID receptor filename>
5s18.oedu

> <HYBRID Chemgauss4 score>
-5.515615

> <HYBRID receptor title>
5S18(A) > WOY(A-201)

> <HYBRID receptor filename>
5s18.oedu

> <Dock Type>
Hybrid

$$$$
MOL0117_5
  -OEChem-06022418243D

 27 29  0     0  0  0  0  0  0999 V2000
    0.5120   14.7791   -4.1529 C   0  0  0  0  0  0  0  0  0  0  0  0
    1.6537   14.5642   -3.3810 C   0  0  0  0  0  0  0  0  0  0  0  0
   -0.7425   14.8257   -3.5448 C   0  0  0  0  0  0  0  0  0  0  0  0
    1.5409   14.3956   -2.0009 C   0  0  0  0  0  0  0  0  0  0  0  0
   -4.4169   14.9664   -1.8098 C   0  0  0  0  0  0  0  0  0  0  0  0
   -0.8553   14.6571   -2.1648 C   0  0  0  0  0  0  0  0  0  0  0  0
   -4.5731   14.8132   -0.4576 C   0  0  0  0  0  0  0  0  0  0  0  0
    0.2863   14.4421   -1.3928 C   0  0  0  0  0  0  0  0  0  0  0  0
   -3.4378   14.5961    0.3065 C   0  0  0  0  0  0  0  0  0  0  0  0
   -2.1599   14.7085   -1.5563 C   0  0  0  0  0  0  0  0  0  0  0  0
   -5.7939   14.7913    0.3898 C   0  0  0  0  0  0  0  0  0  0  0  0
   -5.1810   14.7939    1.8070 C   0  0  0  0  0  0  0  0  0  0  0  0
   -3.2023   14.9221   -2.3943 N   0  0  0  0  0  0  0  0  0  0  0  0
   -2.2026   14.5366   -0.2171 N   0  0  0  0  0  0  0  0  0  0  0  0
   -3.7773   14.4478    1.6594 N   0  0  0  0  0  0  0  0  0  0  0  0
    0.2053   14.2724   -0.0421 O   0  0  0  0  0  0  0  0  0  0  0  0
    0.6001   14.9106   -5.2274 H   0  0  0  0  0  0  0  0  0  0  0  0
    2.6304   14.5278   -3.8545 H   0  0  0  0  0  0  0  0  0  0  0  0
   -1.6226   14.9939   -4.1611 H   0  0  0  0  0  0  0  0  0  0  0  0
    2.4348   14.2284   -1.4060 H   0  0  0  0  0  0  0  0  0  0  0  0
   -5.2572   15.1271   -2.4741 H   0  0  0  0  0  0  0  0  0  0  0  0
   -6.4236   15.6704    0.2267 H   0  0  0  0  0  0  0  0  0  0  0  0
   -6.3660   13.8754    0.2106 H   0  0  0  0  0  0  0  0  0  0  0  0
   -5.2634   15.7934    2.2507 H   0  0  0  0  0  0  0  0  0  0  0  0
   -5.6985   14.0897    2.4664 H   0  0  0  0  0  0  0  0  0  0  0  0
   -3.1081   14.3461    2.4064 H   0  0  0  0  0  0  0  0  0  0  0  0
    1.0897   14.1341    0.3305 H   0  0  0  0  0  0  0  0  0  0  0  0
  1  2  1  0  0  0  0
  1  3  2  0  0  0  0
  2  4  2  0  0  0  0
  3  6  1  0  0  0  0
  4  8  1  0  0  0  0
  5  7  1  0  0  0  0
  5 13  2  0  0  0  0
  6  8  2  0  0  0  0
  6 10  1  0  0  0  0
  7  9  2  0  0  0  0
  7 11  1  0  0  0  0
  8 16  1  0  0  0  0
  9 14  1  0  0  0  0
  9 15  1  0  0  0  0
 10 13  1  0  0  0  0
 10 14  2  0  0  0  0
 11 12  1  0  0  0  0
 12 15  1  0  0  0  0
  1 17  1  0  0  0  0
  2 18  1  0  0  0  0
  3 19  1  0  0  0  0
  4 20  1  0  0  0  0
  5 21  1  0  0  0  0
 11 22  1  0  0  0  0
 11 23  1  0  0  0  0
 12 24  1  0  0  0  0
 12 25  1  0  0  0  0
 15 26  1  0  0  0  0
 16 27  1  0  0  0  0
M  END
> <HYBRID receptor title>
5S18(A) > WOY(A-201)

> <HYBRID receptor filename>
5s18.oedu

> <HYBRID Chemgauss4 score>
-5.512348

> <HYBRID receptor title>
5S18(A) > WOY(A-201)

> <HYBRID receptor filename>
5s18.oedu

> <Dock Type>
Hybrid

$$$$
MOL0200_1
  -OEChem-06022418243D

 26 28  0     0  0  0  0  0  0999 V2000
   -0.3776   14.6443   -0.8677 C   0  0  0  0  0  0  0  0  0  0  0  0
   -3.3208   14.7671    1.1638 C   0  0  0  0  0  0  0  0  0  0  0  0
    0.2471   15.0130    1.2771 C   0  0  0  0  0  0  0  0  0  0  0  0
   -1.7170   14.6103   -0.5299 C   0  0  0  0  0  0  0  0  0  0  0  0
   -1.9814   14.8011    0.8259 C   0  0  0  0  0  0  0  0  0  0  0  0
   -3.9455   14.3983   -0.9811 C   0  0  0  0  0  0  0  0  0  0  0  0
   -7.0452   13.5939   -2.8934 C   0  0  0  0  0  0  0  0  0  0  0  0
   -6.1368   14.1193   -3.9865 C   0  0  0  0  0  0  0  0  0  0  0  0
   -6.4014   14.1457   -1.6265 C   0  0  0  0  0  0  0  0  0  0  0  0
   -4.7509   13.9831   -3.3665 C   0  0  0  0  0  0  0  0  0  0  0  0
    0.6324   14.8426    0.0042 N   0  0  0  0  0  0  0  0  0  0  0  0
   -4.3308   14.5689    0.2919 N   0  0  0  0  0  0  0  0  0  0  0  0
   -1.0149   15.0033    1.7419 N   0  0  0  0  0  0  0  0  0  0  0  0
   -2.6835   14.4080   -1.4458 N   0  0  0  0  0  0  0  0  0  0  0  0
   -4.9654   14.1895   -1.9290 N   0  0  0  0  0  0  0  0  0  0  0  0
   -0.0605   14.5074   -1.8979 H   0  0  0  0  0  0  0  0  0  0  0  0
   -3.6363   14.9033    2.1945 H   0  0  0  0  0  0  0  0  0  0  0  0
    1.0311   15.1745    2.0061 H   0  0  0  0  0  0  0  0  0  0  0  0
   -8.0796   13.9277   -3.0139 H   0  0  0  0  0  0  0  0  0  0  0  0
   -7.0325   12.4977   -2.8802 H   0  0  0  0  0  0  0  0  0  0  0  0
   -6.2339   13.5532   -4.9170 H   0  0  0  0  0  0  0  0  0  0  0  0
   -6.3591   15.1724   -4.1950 H   0  0  0  0  0  0  0  0  0  0  0  0
   -6.7551   15.1638   -1.4100 H   0  0  0  0  0  0  0  0  0  0  0  0
   -6.6201   13.5106   -0.7571 H   0  0  0  0  0  0  0  0  0  0  0  0
   -4.3392   12.9765   -3.5280 H   0  0  0  0  0  0  0  0  0  0  0  0
   -4.0494   14.7157   -3.7881 H   0  0  0  0  0  0  0  0  0  0  0  0
  1  4  1  0  0  0  0
  1 11  2  0  0  0  0
  2  5  1  0  0  0  0
  2 12  2  0  0  0  0
  3 11  1  0  0  0  0
  3 13  2  0  0  0  0
  4  5  2  0  0  0  0
  4 14  1  0  0  0  0
  5 13  1  0  0  0  0
  6 12  1  0  0  0  0
  6 14  2  0  0  0  0
  6 15  1  0  0  0  0
  7  8  1  0  0  0  0
  7  9  1  0  0  0  0
  8 10  1  0  0  0  0
  9 15  1  0  0  0  0
 10 15  1  0  0  0  0
  1 16  1  0  0  0  0
  2 17  1  0  0  0  0
  3 18  1  0  0  0  0
  7 19  1  0  0  0  0
  7 20  1  0  0  0  0
  8 21  1  0  0  0  0
  8 22  1  0  0  0  0
  9 23  1  0  0  0  0
  9 24  1  0  0  0  0
 10 25  1  0  0  0  0
 10 26  1  0  0  0  0
M  END
> <HYBRID receptor title>
5S18(A) > WOY(A-201)

> <HYBRID receptor filename>
5s18.oedu

> <HYBRID Chemgauss4 score>
-5.511986

> <HYBRID receptor title>
5S18(A) > WOY(A-201)

> <HYBRID receptor filename>
5s18.oedu

> <Dock Type>
Hybrid

$$$$
MOL0123_2
  -OEChem-06022418243D

 27 29  0     0  0  0  0  0  0999 V2000
   -0.8225   15.7056   -2.9605 C   0  0  0  0  0  0  0  0  0  0  0  0
   -0.1127   14.4862   -0.9993 C   0  0  0  0  0  0  0  0  0  0  0  0
    0.5085   15.8517   -3.3514 C   0  0  0  0  0  0  0  0  0  0  0  0
    1.2183   14.6322   -1.3902 C   0  0  0  0  0  0  0  0  0  0  0  0
   -4.7033   14.6772   -1.9850 C   0  0  0  0  0  0  0  0  0  0  0  0
   -1.1331   15.0229   -1.7844 C   0  0  0  0  0  0  0  0  0  0  0  0
   -5.0472   14.6002   -0.6613 C   0  0  0  0  0  0  0  0  0  0  0  0
    1.5289   15.3149   -2.5663 C   0  0  0  0  0  0  0  0  0  0  0  0
   -4.0305   14.6610    0.2781 C   0  0  0  0  0  0  0  0  0  0  0  0
   -2.5075   14.8720   -1.3807 C   0  0  0  0  0  0  0  0  0  0  0  0
   -6.3661   14.4115   -0.0027 C   0  0  0  0  0  0  0  0  0  0  0  0
   -6.0011   14.6380    1.4805 C   0  0  0  0  0  0  0  0  0  0  0  0
   -3.4214   14.8198   -2.3789 N   0  0  0  0  0  0  0  0  0  0  0  0
   -2.7358   14.7974   -0.0513 N   0  0  0  0  0  0  0  0  0  0  0  0
   -4.5534   14.5542    1.5754 N   0  0  0  0  0  0  0  0  0  0  0  0
    2.8273   15.4570   -2.9482 O   0  0  0  0  0  0  0  0  0  0  0  0
   -1.6067   16.1296   -3.5831 H   0  0  0  0  0  0  0  0  0  0  0  0
   -0.3386   13.9513   -0.0800 H   0  0  0  0  0  0  0  0  0  0  0  0
    0.7442   16.3843   -4.2687 H   0  0  0  0  0  0  0  0  0  0  0  0
    2.0090   14.2118   -0.7748 H   0  0  0  0  0  0  0  0  0  0  0  0
   -5.4399   14.6246   -2.7774 H   0  0  0  0  0  0  0  0  0  0  0  0
   -7.1055   15.1403   -0.3464 H   0  0  0  0  0  0  0  0  0  0  0  0
   -6.7318   13.3929   -0.1664 H   0  0  0  0  0  0  0  0  0  0  0  0
   -6.3285   15.6344    1.8006 H   0  0  0  0  0  0  0  0  0  0  0  0
   -6.4869   13.9006    2.1276 H   0  0  0  0  0  0  0  0  0  0  0  0
   -4.0068   14.6383    2.4182 H   0  0  0  0  0  0  0  0  0  0  0  0
    3.4160   15.0328   -2.3036 H   0  0  0  0  0  0  0  0  0  0  0  0
  1  3  2  0  0  0  0
  1  6  1  0  0  0  0
  2  4  1  0  0  0  0
  2  6  2  0  0  0  0
  3  8  1  0  0  0  0
  4  8  2  0  0  0  0
  5  7  1  0  0  0  0
  5 13  2  0  0  0  0
  6 10  1  0  0  0  0
  7  9  2  0  0  0  0
  7 11  1  0  0  0  0
  8 16  1  0  0  0  0
  9 14  1  0  0  0  0
  9 15  1  0  0  0  0
 10 13  1  0  0  0  0
 10 14  2  0  0  0  0
 11 12  1  0  0  0  0
 12 15  1  0  0  0  0
  1 17  1  0  0  0  0
  2 18  1  0  0  0  0
  3 19  1  0  0  0  0
  4 20  1  0  0  0  0
  5 21  1  0  0  0  0
 11 22  1  0  0  0  0
 11 23  1  0  0  0  0
 12 24  1  0  0  0  0
 12 25  1  0  0  0  0
 15 26  1  0  0  0  0
 16 27  1  0  0  0  0
M  END
> <HYBRID receptor title>
5S18(A) > WOY(A-201)

> <HYBRID receptor filename>
5s18.oedu

> <HYBRID Chemgauss4 score>
-5.503719

> <HYBRID receptor title>
5S18(A) > WOY(A-201)

> <HYBRID receptor filename>
5s18.oedu

> <Dock Type>
Hybrid

$$$$
MOL0211_1
  -OEChem-06022418243D

 15 16  0     0  0  0  0  0  0999 V2000
   -5.0998   15.1862   -0.4311 C   0  0  0  0  0  0  0  0  0  0  0  0
   -5.4190   14.8263   -1.7272 C   0  0  0  0  0  0  0  0  0  0  0  0
   -3.3118   15.4088    1.2412 C   0  0  0  0  0  0  0  0  0  0  0  0
   -3.2333   14.2916   -2.1981 C   0  0  0  0  0  0  0  0  0  0  0  0
   -1.1842   14.8586    0.6893 C   0  0  0  0  0  0  0  0  0  0  0  0
   -3.7606   15.0783   -0.0346 C   0  0  0  0  0  0  0  0  0  0  0  0
   -2.7859   14.6202   -0.9287 C   0  0  0  0  0  0  0  0  0  0  0  0
   -4.5165   14.3799   -2.6243 N   0  0  0  0  0  0  0  0  0  0  0  0
   -2.0271   15.3091    1.6339 N   0  0  0  0  0  0  0  0  0  0  0  0
   -1.4923   14.5065   -0.5753 N   0  0  0  0  0  0  0  0  0  0  0  0
   -5.8689   15.5391    0.2480 H   0  0  0  0  0  0  0  0  0  0  0  0
   -6.4399   14.8900   -2.0883 H   0  0  0  0  0  0  0  0  0  0  0  0
   -3.9925   15.7732    2.0050 H   0  0  0  0  0  0  0  0  0  0  0  0
   -2.5391   13.9279   -2.9514 H   0  0  0  0  0  0  0  0  0  0  0  0
   -0.1429   14.7675    0.9735 H   0  0  0  0  0  0  0  0  0  0  0  0
  1  2  1  0  0  0  0
  1  6  2  0  0  0  0
  2  8  2  0  0  0  0
  3  6  1  0  0  0  0
  3  9  2  0  0  0  0
  4  7  2  0  0  0  0
  4  8  1  0  0  0  0
  5  9  1  0  0  0  0
  5 10  2  0  0  0  0
  6  7  1  0  0  0  0
  7 10  1  0  0  0  0
  1 11  1  0  0  0  0
  2 12  1  0  0  0  0
  3 13  1  0  0  0  0
  4 14  1  0  0  0  0
  5 15  1  0  0  0  0
M  END
> <HYBRID receptor title>
5S18(A) > WOY(A-201)

> <HYBRID receptor filename>
5s18.oedu

> <HYBRID Chemgauss4 score>
-5.494157

> <HYBRID receptor title>
5S18(A) > WOY(A-201)

> <HYBRID receptor filename>
5s18.oedu

> <Dock Type>
Hybrid

$$$$
MOL0000_1
  -OEChem-06022418243D

 19 20  0     0  0  0  0  0  0999 V2000
   -3.1209   15.1842    1.3962 C   0  0  0  0  0  0  0  0  0  0  0  0
   -0.9289   15.1594    0.8000 C   0  0  0  0  0  0  0  0  0  0  0  0
   -3.5161   15.1027    0.0719 C   0  0  0  0  0  0  0  0  0  0  0  0
   -2.4875   15.0311   -0.8618 C   0  0  0  0  0  0  0  0  0  0  0  0
   -4.9587   15.0202   -0.3310 C   0  0  0  0  0  0  0  0  0  0  0  0
   -2.8156   14.9680   -2.3302 C   0  0  0  0  0  0  0  0  0  0  0  0
   -4.2603   14.5304   -2.5844 C   0  0  0  0  0  0  0  0  0  0  0  0
   -1.8331   15.2189    1.7947 N   0  0  0  0  0  0  0  0  0  0  0  0
   -1.1798   15.0686   -0.5199 N   0  0  0  0  0  0  0  0  0  0  0  0
   -5.1926   15.2996   -1.7549 N   0  0  0  0  0  0  0  0  0  0  0  0
   -3.8492   15.2271    2.1997 H   0  0  0  0  0  0  0  0  0  0  0  0
    0.1138   15.1877    1.0923 H   0  0  0  0  0  0  0  0  0  0  0  0
   -5.3450   14.0156   -0.1152 H   0  0  0  0  0  0  0  0  0  0  0  0
   -5.5409   15.7266    0.2761 H   0  0  0  0  0  0  0  0  0  0  0  0
   -2.6477   15.9490   -2.7874 H   0  0  0  0  0  0  0  0  0  0  0  0
   -2.1255   14.2580   -2.8010 H   0  0  0  0  0  0  0  0  0  0  0  0
   -4.5216   14.6464   -3.6466 H   0  0  0  0  0  0  0  0  0  0  0  0
   -4.3671   13.4623   -2.3541 H   0  0  0  0  0  0  0  0  0  0  0  0
   -6.1475   15.0396   -1.9958 H   0  0  0  0  0  0  0  0  0  0  0  0
  1  3  1  0  0  0  0
  1  8  2  0  0  0  0
  2  8  1  0  0  0  0
  2  9  2  0  0  0  0
  3  4  2  0  0  0  0
  3  5  1  0  0  0  0
  4  6  1  0  0  0  0
  4  9  1  0  0  0  0
  5 10  1  0  0  0  0
  6  7  1  0  0  0  0
  7 10  1  0  0  0  0
  1 11  1  0  0  0  0
  2 12  1  0  0  0  0
  5 13  1  0  0  0  0
  5 14  1  0  0  0  0
  6 15  1  0  0  0  0
  6 16  1  0  0  0  0
  7 17  1  0  0  0  0
  7 18  1  0  0  0  0
 10 19  1  0  0  0  0
M  END
> <HYBRID receptor title>
5S18(A) > WOY(A-201)

> <HYBRID receptor filename>
5s18.oedu

> <HYBRID Chemgauss4 score>
-5.446129

> <HYBRID receptor title>
5S18(A) > WOY(A-201)

> <HYBRID receptor filename>
5s18.oedu

> <Dock Type>
Hybrid

$$$$
MOL0032_2
  -OEChem-06022418243D

 20 21  0     0  0  0  0  0  0999 V2000
   -2.8811   14.7123   -1.1401 C   0  0  0  0  0  0  0  0  0  0  0  0
   -3.7932   15.0322   -0.1694 C   0  0  0  0  0  0  0  0  0  0  0  0
   -3.3230   15.2568    1.1144 C   0  0  0  0  0  0  0  0  0  0  0  0
   -1.2090   14.8678    0.4105 C   0  0  0  0  0  0  0  0  0  0  0  0
   -5.2739   15.1502   -0.2192 C   0  0  0  0  0  0  0  0  0  0  0  0
   -5.5794   15.7407    1.1744 C   0  0  0  0  0  0  0  0  0  0  0  0
    0.9941   14.4519   -0.3828 C   0  0  0  0  0  0  0  0  0  0  0  0
   -1.5618   14.6261   -0.8747 N   0  0  0  0  0  0  0  0  0  0  0  0
   -2.0228   15.1811    1.4422 N   0  0  0  0  0  0  0  0  0  0  0  0
   -4.3845   15.5568    1.9809 N   0  0  0  0  0  0  0  0  0  0  0  0
    0.1340   14.7825    0.6977 O   0  0  0  0  0  0  0  0  0  0  0  0
   -3.1731   14.5109   -2.1635 H   0  0  0  0  0  0  0  0  0  0  0  0
   -5.6066   15.8200   -1.0170 H   0  0  0  0  0  0  0  0  0  0  0  0
   -5.7312   14.1628   -0.3366 H   0  0  0  0  0  0  0  0  0  0  0  0
   -5.7983   16.8119    1.0894 H   0  0  0  0  0  0  0  0  0  0  0  0
   -6.4479   15.2555    1.6313 H   0  0  0  0  0  0  0  0  0  0  0  0
    2.0273   14.4153   -0.0290 H   0  0  0  0  0  0  0  0  0  0  0  0
    0.8942   15.2016   -1.1718 H   0  0  0  0  0  0  0  0  0  0  0  0
    0.7110   13.4725   -0.7757 H   0  0  0  0  0  0  0  0  0  0  0  0
   -4.2733   15.8194    2.9479 H   0  0  0  0  0  0  0  0  0  0  0  0
  1  2  1  0  0  0  0
  1  8  2  0  0  0  0
  2  3  2  0  0  0  0
  2  5  1  0  0  0  0
  3  9  1  0  0  0  0
  3 10  1  0  0  0  0
  4  8  1  0  0  0  0
  4  9  2  0  0  0  0
  4 11  1  0  0  0  0
  5  6  1  0  0  0  0
  6 10  1  0  0  0  0
  7 11  1  0  0  0  0
  1 12  1  0  0  0  0
  5 13  1  0  0  0  0
  5 14  1  0  0  0  0
  6 15  1  0  0  0  0
  6 16  1  0  0  0  0
  7 17  1  0  0  0  0
  7 18  1  0  0  0  0
  7 19  1  0  0  0  0
 10 20  1  0  0  0  0
M  END
> <HYBRID receptor title>
5S18(A) > WOY(A-201)

> <HYBRID receptor filename>
5s18.oedu

> <HYBRID Chemgauss4 score>
-5.445459

> <HYBRID receptor title>
5S18(A) > WOY(A-201)

> <HYBRID receptor filename>
5s18.oedu

> <Dock Type>
Hybrid

$$$$
MOL0155_3
  -OEChem-06022418243D

 21 22  0     0  0  0  0  0  0999 V2000
   -2.6474   14.4151   -0.9705 C   0  0  0  0  0  0  0  0  0  0  0  0
   -3.6392   14.6488   -0.0549 C   0  0  0  0  0  0  0  0  0  0  0  0
   -3.2649   14.9925    1.2340 C   0  0  0  0  0  0  0  0  0  0  0  0
   -1.0868   14.8679    0.6371 C   0  0  0  0  0  0  0  0  0  0  0  0
    0.3117   14.9865    1.0019 C   0  0  0  0  0  0  0  0  0  0  0  0
   -5.1182   14.5593   -0.1707 C   0  0  0  0  0  0  0  0  0  0  0  0
   -5.5664   15.1630    1.1779 C   0  0  0  0  0  0  0  0  0  0  0  0
    0.9643   16.3303    0.8364 C   0  0  0  0  0  0  0  0  0  0  0  0
   -1.3426   14.5234   -0.6476 N   0  0  0  0  0  0  0  0  0  0  0  0
   -1.9834   15.1113    1.6178 N   0  0  0  0  0  0  0  0  0  0  0  0
   -4.3970   15.1814    2.0405 N   0  0  0  0  0  0  0  0  0  0  0  0
    1.0135   14.0669    1.4350 O   0  0  0  0  0  0  0  0  0  0  0  0
   -2.8602   14.1297   -1.9935 H   0  0  0  0  0  0  0  0  0  0  0  0
   -5.5003   15.1409   -1.0146 H   0  0  0  0  0  0  0  0  0  0  0  0
   -5.4315   13.5137   -0.2563 H   0  0  0  0  0  0  0  0  0  0  0  0
   -5.9238   16.1893    1.0304 H   0  0  0  0  0  0  0  0  0  0  0  0
   -6.3818   14.5834    1.6226 H   0  0  0  0  0  0  0  0  0  0  0  0
    0.8915   16.9735    1.7276 H   0  0  0  0  0  0  0  0  0  0  0  0
    0.5666   16.9018   -0.0166 H   0  0  0  0  0  0  0  0  0  0  0  0
    2.0504   16.2692    0.6449 H   0  0  0  0  0  0  0  0  0  0  0  0
   -4.3679   15.5004    2.9963 H   0  0  0  0  0  0  0  0  0  0  0  0
  1  2  1  0  0  0  0
  1  9  2  0  0  0  0
  2  3  2  0  0  0  0
  2  6  1  0  0  0  0
  3 10  1  0  0  0  0
  3 11  1  0  0  0  0
  4  5  1  0  0  0  0
  4  9  1  0  0  0  0
  4 10  2  0  0  0  0
  5  8  1  0  0  0  0
  5 12  2  0  0  0  0
  6  7  1  0  0  0  0
  7 11  1  0  0  0  0
  1 13  1  0  0  0  0
  6 14  1  0  0  0  0
  6 15  1  0  0  0  0
  7 16  1  0  0  0  0
  7 17  1  0  0  0  0
  8 18  1  0  0  0  0
  8 19  1  0  0  0  0
  8 20  1  0  0  0  0
 11 21  1  0  0  0  0
M  END
> <HYBRID receptor title>
5S18(A) > WOY(A-201)

> <HYBRID receptor filename>
5s18.oedu

> <HYBRID Chemgauss4 score>
-5.428905

> <HYBRID receptor title>
5S18(A) > WOY(A-201)

> <HYBRID receptor filename>
5s18.oedu

> <Dock Type>
Hybrid

$$$$
MOL0087_1
  -OEChem-06022418243D

 22 23  0     1  0  0  0  0  0999 V2000
   -2.2465   14.9680    1.2091 C   0  0  0  0  0  0  0  0  0  0  0  0
    0.0031   14.8933    0.9064 C   0  0  0  0  0  0  0  0  0  0  0  0
   -2.4659   14.8506   -0.1525 C   0  0  0  0  0  0  0  0  0  0  0  0
   -1.3276   14.7356   -0.9424 C   0  0  0  0  0  0  0  0  0  0  0  0
   -3.8406   14.7767   -0.7419 C   0  0  0  0  0  0  0  0  0  0  0  0
   -1.4572   14.6404   -2.4434 C   0  0  0  0  0  0  0  0  0  0  0  0
   -3.8388   14.9856   -2.2612 C   0  0  0  0  0  0  0  0  0  0  0  0
   -2.8836   14.2207   -4.3406 C   0  0  0  0  0  0  0  0  0  0  0  0
   -1.0217   14.9966    1.7720 N   0  0  0  0  0  0  0  0  0  0  0  0
   -0.0754   14.7659   -0.4320 N   0  0  0  0  0  0  0  0  0  0  0  0
   -2.7838   14.1721   -2.8824 N   0  0  1  0  0  0  0  0  0  0  0  0
   -3.0732   15.0417    1.9086 H   0  0  0  0  0  0  0  0  0  0  0  0
    0.9991   14.9160    1.3314 H   0  0  0  0  0  0  0  0  0  0  0  0
   -4.2598   13.7889   -0.5109 H   0  0  0  0  0  0  0  0  0  0  0  0
   -4.4872   15.5313   -0.2792 H   0  0  0  0  0  0  0  0  0  0  0  0
   -1.2352   15.6318   -2.8601 H   0  0  0  0  0  0  0  0  0  0  0  0
   -0.6931   13.9440   -2.8096 H   0  0  0  0  0  0  0  0  0  0  0  0
   -4.8253   14.6982   -2.6460 H   0  0  0  0  0  0  0  0  0  0  0  0
   -3.6971   16.0496   -2.4957 H   0  0  0  0  0  0  0  0  0  0  0  0
   -3.8780   13.8687   -4.6526 H   0  0  0  0  0  0  0  0  0  0  0  0
   -2.7368   15.2554   -4.6838 H   0  0  0  0  0  0  0  0  0  0  0  0
   -2.1108   13.5746   -4.7826 H   0  0  0  0  0  0  0  0  0  0  0  0
  1  3  1  0  0  0  0
  1  9  2  0  0  0  0
  2  9  1  0  0  0  0
  2 10  2  0  0  0  0
  3  4  2  0  0  0  0
  3  5  1  0  0  0  0
  4  6  1  0  0  0  0
  4 10  1  0  0  0  0
  5  7  1  0  0  0  0
  6 11  1  0  0  0  0
  7 11  1  0  0  0  0
  8 11  1  0  0  0  0
  1 12  1  0  0  0  0
  2 13  1  0  0  0  0
  5 14  1  0  0  0  0
  5 15  1  0  0  0  0
  6 16  1  0  0  0  0
  6 17  1  0  0  0  0
  7 18  1  0  0  0  0
  7 19  1  0  0  0  0
  8 20  1  0  0  0  0
  8 21  1  0  0  0  0
  8 22  1  0  0  0  0
M  END
> <HYBRID receptor title>
5S18(A) > WOY(A-201)

> <HYBRID receptor filename>
5s18.oedu

> <HYBRID Chemgauss4 score>
-5.427313

> <HYBRID receptor title>
5S18(A) > WOY(A-201)

> <HYBRID receptor filename>
5s18.oedu

> <Dock Type>
Hybrid

$$$$
MOL0053_1
  -OEChem-06022418243D

 22 23  0     0  0  0  0  0  0999 V2000
   -2.8406   14.9597   -1.0769 C   0  0  0  0  0  0  0  0  0  0  0  0
   -3.7974   15.2057   -0.1280 C   0  0  0  0  0  0  0  0  0  0  0  0
   -3.3865   15.3409    1.1883 C   0  0  0  0  0  0  0  0  0  0  0  0
   -1.2404   15.0125    0.5543 C   0  0  0  0  0  0  0  0  0  0  0  0
   -5.2753   15.3201   -0.2358 C   0  0  0  0  0  0  0  0  0  0  0  0
   -5.6471   15.8090    1.1809 C   0  0  0  0  0  0  0  0  0  0  0  0
    0.8378   16.2665    1.1829 C   0  0  0  0  0  0  0  0  0  0  0  0
    0.2007   14.9038    0.9242 C   0  0  0  0  0  0  0  0  0  0  0  0
   -1.5338   14.8609   -0.7592 N   0  0  0  0  0  0  0  0  0  0  0  0
   -2.1017   15.2481    1.5680 N   0  0  0  0  0  0  0  0  0  0  0  0
   -4.4879   15.5739    2.0252 N   0  0  0  0  0  0  0  0  0  0  0  0
   -3.0851   14.8296   -2.1240 H   0  0  0  0  0  0  0  0  0  0  0  0
   -5.5776   16.0434   -0.9983 H   0  0  0  0  0  0  0  0  0  0  0  0
   -5.7197   14.3417   -0.4425 H   0  0  0  0  0  0  0  0  0  0  0  0
   -5.8699   16.8824    1.1618 H   0  0  0  0  0  0  0  0  0  0  0  0
   -6.5309   15.2885    1.5630 H   0  0  0  0  0  0  0  0  0  0  0  0
    0.7367   16.9198    0.3096 H   0  0  0  0  0  0  0  0  0  0  0  0
    1.9043   16.1596    1.4047 H   0  0  0  0  0  0  0  0  0  0  0  0
    0.3629   16.7670    2.0336 H   0  0  0  0  0  0  0  0  0  0  0  0
    0.3205   14.2743    1.8204 H   0  0  0  0  0  0  0  0  0  0  0  0
    0.7631   14.3885    0.1290 H   0  0  0  0  0  0  0  0  0  0  0  0
   -4.4221   15.7672    3.0124 H   0  0  0  0  0  0  0  0  0  0  0  0
  1  2  1  0  0  0  0
  1  9  2  0  0  0  0
  2  3  2  0  0  0  0
  2  5  1  0  0  0  0
  3 10  1  0  0  0  0
  3 11  1  0  0  0  0
  4  8  1  0  0  0  0
  4  9  1  0  0  0  0
  4 10  2  0  0  0  0
  5  6  1  0  0  0  0
  6 11  1  0  0  0  0
  7  8  1  0  0  0  0
  1 12  1  0  0  0  0
  5 13  1  0  0  0  0
  5 14  1  0  0  0  0
  6 15  1  0  0  0  0
  6 16  1  0  0  0  0
  7 17  1  0  0  0  0
  7 18  1  0  0  0  0
  7 19  1  0  0  0  0
  8 20  1  0  0  0  0
  8 21  1  0  0  0  0
 11 22  1  0  0  0  0
M  END
> <HYBRID receptor title>
5S18(A) > WOY(A-201)

> <HYBRID receptor filename>
5s18.oedu

> <HYBRID Chemgauss4 score>
-5.422495

> <HYBRID receptor title>
5S18(A) > WOY(A-201)

> <HYBRID receptor filename>
5s18.oedu

> <Dock Type>
Hybrid

$$$$
MOL0072_1
  -OEChem-06022418243D

 22 23  0     0  0  0  0  0  0999 V2000
   -3.1325   15.0984    0.8748 C   0  0  0  0  0  0  0  0  0  0  0  0
   -3.3637   14.8911   -0.4738 C   0  0  0  0  0  0  0  0  0  0  0  0
   -2.2372   14.6450   -1.2517 C   0  0  0  0  0  0  0  0  0  0  0  0
   -0.8927   14.8602    0.5808 C   0  0  0  0  0  0  0  0  0  0  0  0
   -4.7429   14.8593   -1.0585 C   0  0  0  0  0  0  0  0  0  0  0  0
   -2.3790   14.4422   -2.7385 C   0  0  0  0  0  0  0  0  0  0  0  0
   -4.7268   14.9551   -2.5869 C   0  0  0  0  0  0  0  0  0  0  0  0
    0.4797   14.8489    1.1632 C   0  0  0  0  0  0  0  0  0  0  0  0
   -1.9059   15.0931    1.4350 N   0  0  0  0  0  0  0  0  0  0  0  0
   -0.9838   14.6357   -0.7440 N   0  0  0  0  0  0  0  0  0  0  0  0
   -3.7302   14.0403   -3.1473 N   0  0  0  0  0  0  0  0  0  0  0  0
   -3.9495   15.2832    1.5651 H   0  0  0  0  0  0  0  0  0  0  0  0
   -5.2532   13.9347   -0.7645 H   0  0  0  0  0  0  0  0  0  0  0  0
   -5.3113   15.7021   -0.6451 H   0  0  0  0  0  0  0  0  0  0  0  0
   -2.1214   15.3725   -3.2575 H   0  0  0  0  0  0  0  0  0  0  0  0
   -1.6572   13.6823   -3.0607 H   0  0  0  0  0  0  0  0  0  0  0  0
   -5.7171   14.7264   -3.0007 H   0  0  0  0  0  0  0  0  0  0  0  0
   -4.4906   15.9818   -2.8867 H   0  0  0  0  0  0  0  0  0  0  0  0
    0.7485   13.8364    1.4891 H   0  0  0  0  0  0  0  0  0  0  0  0
    1.2258   15.1885    0.4329 H   0  0  0  0  0  0  0  0  0  0  0  0
    0.5519   15.5228    2.0271 H   0  0  0  0  0  0  0  0  0  0  0  0
   -3.7920   14.0581   -4.1654 H   0  0  0  0  0  0  0  0  0  0  0  0
  1  2  1  0  0  0  0
  1  9  2  0  0  0  0
  2  3  2  0  0  0  0
  2  5  1  0  0  0  0
  3  6  1  0  0  0  0
  3 10  1  0  0  0  0
  4  8  1  0  0  0  0
  4  9  1  0  0  0  0
  4 10  2  0  0  0  0
  5  7  1  0  0  0  0
  6 11  1  0  0  0  0
  7 11  1  0  0  0  0
  1 12  1  0  0  0  0
  5 13  1  0  0  0  0
  5 14  1  0  0  0  0
  6 15  1  0  0  0  0
  6 16  1  0  0  0  0
  7 17  1  0  0  0  0
  7 18  1  0  0  0  0
  8 19  1  0  0  0  0
  8 20  1  0  0  0  0
  8 21  1  0  0  0  0
 11 22  1  0  0  0  0
M  END
> <HYBRID receptor title>
5S18(A) > WOY(A-201)

> <HYBRID receptor filename>
5s18.oedu

> <HYBRID Chemgauss4 score>
-5.410424

> <HYBRID receptor title>
5S18(A) > WOY(A-201)

> <HYBRID receptor filename>
5s18.oedu

> <Dock Type>
Hybrid

$$$$
MOL0186_2
  -OEChem-06022418243D

 20 21  0     0  0  0  0  0  0999 V2000
   -3.0940   14.6048   -1.0750 C   0  0  0  0  0  0  0  0  0  0  0  0
   -4.0443   14.6661   -0.0904 C   0  0  0  0  0  0  0  0  0  0  0  0
   -3.6187   14.8863    1.2097 C   0  0  0  0  0  0  0  0  0  0  0  0
   -1.4748   14.9767    0.4948 C   0  0  0  0  0  0  0  0  0  0  0  0
    0.8985   15.1061   -0.1101 C   0  0  0  0  0  0  0  0  0  0  0  0
   -0.0645   15.1485    0.8013 C   0  0  0  0  0  0  0  0  0  0  0  0
   -5.5193   14.4910   -0.1423 C   0  0  0  0  0  0  0  0  0  0  0  0
   -5.9258   14.9068    1.2881 C   0  0  0  0  0  0  0  0  0  0  0  0
   -1.7819   14.7633   -0.8069 N   0  0  0  0  0  0  0  0  0  0  0  0
   -2.3271   15.0467    1.5406 N   0  0  0  0  0  0  0  0  0  0  0  0
   -4.7124   14.9061    2.0878 N   0  0  0  0  0  0  0  0  0  0  0  0
   -3.3476   14.4239   -2.1124 H   0  0  0  0  0  0  0  0  0  0  0  0
    1.9260   15.2573    0.2069 H   0  0  0  0  0  0  0  0  0  0  0  0
    0.7354   14.9419   -1.1685 H   0  0  0  0  0  0  0  0  0  0  0  0
    0.1932   15.3476    1.8291 H   0  0  0  0  0  0  0  0  0  0  0  0
   -5.9841   15.1374   -0.8920 H   0  0  0  0  0  0  0  0  0  0  0  0
   -5.7723   13.4435   -0.3340 H   0  0  0  0  0  0  0  0  0  0  0  0
   -6.3537   15.9165    1.2791 H   0  0  0  0  0  0  0  0  0  0  0  0
   -6.6773   14.2271    1.7025 H   0  0  0  0  0  0  0  0  0  0  0  0
   -4.6486   15.1149    3.0719 H   0  0  0  0  0  0  0  0  0  0  0  0
  1  2  1  0  0  0  0
  1  9  2  0  0  0  0
  2  3  2  0  0  0  0
  2  7  1  0  0  0  0
  3 10  1  0  0  0  0
  3 11  1  0  0  0  0
  4  6  1  0  0  0  0
  4  9  1  0  0  0  0
  4 10  2  0  0  0  0
  5  6  2  0  0  0  0
  7  8  1  0  0  0  0
  8 11  1  0  0  0  0
  1 12  1  0  0  0  0
  5 13  1  0  0  0  0
  5 14  1  0  0  0  0
  6 15  1  0  0  0  0
  7 16  1  0  0  0  0
  7 17  1  0  0  0  0
  8 18  1  0  0  0  0
  8 19  1  0  0  0  0
 11 20  1  0  0  0  0
M  END
> <HYBRID receptor title>
5S18(A) > WOY(A-201)

> <HYBRID receptor filename>
5s18.oedu

> <HYBRID Chemgauss4 score>
-5.409065

> <HYBRID receptor title>
5S18(A) > WOY(A-201)

> <HYBRID receptor filename>
5s18.oedu

> <Dock Type>
Hybrid

$$$$
MOL0081_1
  -OEChem-06022418243D

 14 15  0     0  0  0  0  0  0999 V2000
   -1.8503   14.3869   -2.2140 C   0  0  0  0  0  0  0  0  0  0  0  0
   -2.8906   14.8684    1.1772 C   0  0  0  0  0  0  0  0  0  0  0  0
   -3.2143   14.4662   -2.3936 C   0  0  0  0  0  0  0  0  0  0  0  0
   -0.5879   14.6981    1.1769 C   0  0  0  0  0  0  0  0  0  0  0  0
   -1.6017   14.5345   -0.8278 C   0  0  0  0  0  0  0  0  0  0  0  0
   -2.8301   14.7007   -0.1952 C   0  0  0  0  0  0  0  0  0  0  0  0
   -1.7336   14.8654    1.8744 N   0  0  0  0  0  0  0  0  0  0  0  0
   -0.4269   14.5282   -0.1511 N   0  0  0  0  0  0  0  0  0  0  0  0
   -3.7977   14.6563   -1.1661 N   0  0  0  0  0  0  0  0  0  0  0  0
   -1.1207   14.2381   -2.9975 H   0  0  0  0  0  0  0  0  0  0  0  0
   -3.8104   15.0026    1.7295 H   0  0  0  0  0  0  0  0  0  0  0  0
   -3.8226   14.4046   -3.2851 H   0  0  0  0  0  0  0  0  0  0  0  0
    0.3231   14.7004    1.7656 H   0  0  0  0  0  0  0  0  0  0  0  0
   -4.7911   14.7482   -1.0040 H   0  0  0  0  0  0  0  0  0  0  0  0
  1  3  2  0  0  0  0
  1  5  1  0  0  0  0
  2  6  1  0  0  0  0
  2  7  2  0  0  0  0
  3  9  1  0  0  0  0
  4  7  1  0  0  0  0
  4  8  2  0  0  0  0
  5  6  2  0  0  0  0
  5  8  1  0  0  0  0
  6  9  1  0  0  0  0
  1 10  1  0  0  0  0
  2 11  1  0  0  0  0
  3 12  1  0  0  0  0
  4 13  1  0  0  0  0
  9 14  1  0  0  0  0
M  END
> <HYBRID receptor title>
5S18(A) > WOY(A-201)

> <HYBRID receptor filename>
5s18.oedu

> <HYBRID Chemgauss4 score>
-5.396366

> <HYBRID receptor title>
5S18(A) > WOY(A-201)

> <HYBRID receptor filename>
5s18.oedu

> <Dock Type>
Hybrid

$$$$
MOL0010_1
  -OEChem-06022418243D

 16 17  0     0  0  0  0  0  0999 V2000
   -1.2231   14.6467   -1.0633 C   0  0  0  0  0  0  0  0  0  0  0  0
   -2.3352   14.9983   -0.3450 C   0  0  0  0  0  0  0  0  0  0  0  0
   -2.1780   15.2652    1.0055 C   0  0  0  0  0  0  0  0  0  0  0  0
    0.0391   14.8534    0.8310 C   0  0  0  0  0  0  0  0  0  0  0  0
   -3.7618   15.1144   -0.7451 C   0  0  0  0  0  0  0  0  0  0  0  0
   -4.3816   15.7506    0.5179 C   0  0  0  0  0  0  0  0  0  0  0  0
   -0.0037   14.5694   -0.4926 N   0  0  0  0  0  0  0  0  0  0  0  0
   -0.9919   15.2005    1.6319 N   0  0  0  0  0  0  0  0  0  0  0  0
   -3.4111   15.5936    1.5881 N   0  0  0  0  0  0  0  0  0  0  0  0
    1.7542   14.7501    1.6603 Br  0  0  0  0  0  0  0  0  0  0  0  0
   -1.2680   14.4113   -2.1197 H   0  0  0  0  0  0  0  0  0  0  0  0
   -3.8927   15.7577   -1.6198 H   0  0  0  0  0  0  0  0  0  0  0  0
   -4.1867   14.1236   -0.9349 H   0  0  0  0  0  0  0  0  0  0  0  0
   -4.5672   16.8183    0.3498 H   0  0  0  0  0  0  0  0  0  0  0  0
   -5.3367   15.2802    0.7733 H   0  0  0  0  0  0  0  0  0  0  0  0
   -3.5282   15.8878    2.5452 H   0  0  0  0  0  0  0  0  0  0  0  0
  1  2  1  0  0  0  0
  1  7  2  0  0  0  0
  2  3  2  0  0  0  0
  2  5  1  0  0  0  0
  3  8  1  0  0  0  0
  3  9  1  0  0  0  0
  4  7  1  0  0  0  0
  4  8  2  0  0  0  0
  4 10  1  0  0  0  0
  5  6  1  0  0  0  0
  6  9  1  0  0  0  0
  1 11  1  0  0  0  0
  5 12  1  0  0  0  0
  5 13  1  0  0  0  0
  6 14  1  0  0  0  0
  6 15  1  0  0  0  0
  9 16  1  0  0  0  0
M  END
> <HYBRID receptor title>
5S18(A) > WOY(A-201)

> <HYBRID receptor filename>
5s18.oedu

> <HYBRID Chemgauss4 score>
-5.396166

> <HYBRID receptor title>
5S18(A) > WOY(A-201)

> <HYBRID receptor filename>
5s18.oedu

> <Dock Type>
Hybrid

$$$$
MOL0191_1
  -OEChem-06022418243D

 19 20  0     0  0  0  0  0  0999 V2000
   -3.2759   15.1015    1.3694 C   0  0  0  0  0  0  0  0  0  0  0  0
   -1.6687   14.7586   -0.7562 C   0  0  0  0  0  0  0  0  0  0  0  0
   -1.1605   14.9820    0.5192 C   0  0  0  0  0  0  0  0  0  0  0  0
   -3.0480   14.7049   -0.8556 C   0  0  0  0  0  0  0  0  0  0  0  0
   -0.7672   14.5201   -1.9290 C   0  0  0  0  0  0  0  0  0  0  0  0
    0.3282   15.0934    0.7272 C   0  0  0  0  0  0  0  0  0  0  0  0
    0.6729   14.9612   -1.6522 C   0  0  0  0  0  0  0  0  0  0  0  0
   -1.9508   15.1682    1.6007 N   0  0  0  0  0  0  0  0  0  0  0  0
   -3.8825   14.8762    0.1897 N   0  0  0  0  0  0  0  0  0  0  0  0
    1.1160   14.4734   -0.3447 N   0  0  0  0  0  0  0  0  0  0  0  0
   -3.8760   14.4314   -2.3398 Cl  0  0  0  0  0  0  0  0  0  0  0  0
   -3.9231   15.2454    2.2260 H   0  0  0  0  0  0  0  0  0  0  0  0
   -0.7496   13.4567   -2.1937 H   0  0  0  0  0  0  0  0  0  0  0  0
   -1.1600   15.0782   -2.7883 H   0  0  0  0  0  0  0  0  0  0  0  0
    0.6067   16.1510    0.7961 H   0  0  0  0  0  0  0  0  0  0  0  0
    0.5855   14.6292    1.6868 H   0  0  0  0  0  0  0  0  0  0  0  0
    1.3486   14.5951   -2.4357 H   0  0  0  0  0  0  0  0  0  0  0  0
    0.7319   16.0547   -1.6727 H   0  0  0  0  0  0  0  0  0  0  0  0
    2.1011   14.7055   -0.2154 H   0  0  0  0  0  0  0  0  0  0  0  0
  1  8  1  0  0  0  0
  1  9  2  0  0  0  0
  2  3  1  0  0  0  0
  2  4  2  0  0  0  0
  2  5  1  0  0  0  0
  3  6  1  0  0  0  0
  3  8  2  0  0  0  0
  4  9  1  0  0  0  0
  4 11  1  0  0  0  0
  5  7  1  0  0  0  0
  6 10  1  0  0  0  0
  7 10  1  0  0  0  0
  1 12  1  0  0  0  0
  5 13  1  0  0  0  0
  5 14  1  0  0  0  0
  6 15  1  0  0  0  0
  6 16  1  0  0  0  0
  7 17  1  0  0  0  0
  7 18  1  0  0  0  0
 10 19  1  0  0  0  0
M  END
> <HYBRID receptor title>
5S18(A) > WOY(A-201)

> <HYBRID receptor filename>
5s18.oedu

> <HYBRID Chemgauss4 score>
-5.389545

> <HYBRID receptor title>
5S18(A) > WOY(A-201)

> <HYBRID receptor filename>
5s18.oedu

> <Dock Type>
Hybrid

$$$$
MOL0216_1
  -OEChem-06022418243D

 19 20  0     1  0  0  0  0  0999 V2000
   -2.8266   15.1347    1.0426 C   0  0  0  0  0  0  0  0  0  0  0  0
   -0.5707   14.7305    1.0050 C   0  0  0  0  0  0  0  0  0  0  0  0
   -2.8498   15.0711   -0.3235 C   0  0  0  0  0  0  0  0  0  0  0  0
   -1.6529   14.8260   -0.9597 C   0  0  0  0  0  0  0  0  0  0  0  0
   -3.9384   15.2488   -1.3119 C   0  0  0  0  0  0  0  0  0  0  0  0
   -1.8737   14.8428   -2.4472 C   0  0  1  0  0  0  0  0  0  0  0  0
   -1.2522   13.6451   -3.1538 C   0  0  0  0  0  0  0  0  0  0  0  0
   -1.6850   14.9607    1.7436 N   0  0  0  0  0  0  0  0  0  0  0  0
   -0.4775   14.6563   -0.3395 N   0  0  0  0  0  0  0  0  0  0  0  0
   -3.3553   14.8680   -2.6260 N   0  0  0  0  0  0  0  0  0  0  0  0
   -3.7169   15.3292    1.6280 H   0  0  0  0  0  0  0  0  0  0  0  0
    0.3502   14.5927    1.5590 H   0  0  0  0  0  0  0  0  0  0  0  0
   -4.7987   14.6120   -1.0838 H   0  0  0  0  0  0  0  0  0  0  0  0
   -4.2582   16.2951   -1.3462 H   0  0  0  0  0  0  0  0  0  0  0  0
   -1.4609   15.7733   -2.8541 H   0  0  0  0  0  0  0  0  0  0  0  0
   -1.6622   12.7193   -2.7498 H   0  0  0  0  0  0  0  0  0  0  0  0
   -0.1717   13.6458   -3.0091 H   0  0  0  0  0  0  0  0  0  0  0  0
   -1.4659   13.6898   -4.2220 H   0  0  0  0  0  0  0  0  0  0  0  0
   -3.6743   13.9238   -2.8479 H   0  0  0  0  0  0  0  0  0  0  0  0
  1  3  1  0  0  0  0
  1  8  2  0  0  0  0
  2  8  1  0  0  0  0
  2  9  2  0  0  0  0
  3  4  2  0  0  0  0
  3  5  1  0  0  0  0
  4  6  1  0  0  0  0
  4  9  1  0  0  0  0
  5 10  1  0  0  0  0
  6  7  1  0  0  0  0
  6 10  1  0  0  0  0
  1 11  1  0  0  0  0
  2 12  1  0  0  0  0
  5 13  1  0  0  0  0
  5 14  1  0  0  0  0
  6 15  1  0  0  0  0
  7 16  1  0  0  0  0
  7 17  1  0  0  0  0
  7 18  1  0  0  0  0
 10 19  1  0  0  0  0
M  END
> <HYBRID receptor title>
5S18(A) > WOY(A-201)

> <HYBRID receptor filename>
5s18.oedu

> <HYBRID Chemgauss4 score>
-5.386388

> <HYBRID receptor title>
5S18(A) > WOY(A-201)

> <HYBRID receptor filename>
5s18.oedu

> <Dock Type>
Hybrid

$$$$
MOL0224_10
  -OEChem-06022418243D

 32 34  0     1  0  0  0  0  0999 V2000
   -6.6261   11.5567   -5.3952 C   0  0  0  0  0  0  0  0  0  0  0  0
   -7.4325   11.9927   -4.3439 C   0  0  0  0  0  0  0  0  0  0  0  0
   -5.2373   11.6224   -5.2826 C   0  0  0  0  0  0  0  0  0  0  0  0
   -6.8501   12.4944   -3.1800 C   0  0  0  0  0  0  0  0  0  0  0  0
   -4.6549   12.1241   -4.1187 C   0  0  0  0  0  0  0  0  0  0  0  0
   -2.8393   15.2518    1.3785 C   0  0  0  0  0  0  0  0  0  0  0  0
   -0.6137   14.9089    1.0843 C   0  0  0  0  0  0  0  0  0  0  0  0
   -3.0861   15.0287    0.0342 C   0  0  0  0  0  0  0  0  0  0  0  0
   -5.4613   12.5602   -3.0673 C   0  0  0  0  0  0  0  0  0  0  0  0
   -1.9682   14.7576   -0.7472 C   0  0  0  0  0  0  0  0  0  0  0  0
   -4.4617   15.1531   -0.5564 C   0  0  0  0  0  0  0  0  0  0  0  0
   -2.1295   14.4669   -2.2151 C   0  0  0  0  0  0  0  0  0  0  0  0
   -3.4944   14.9068   -2.7591 C   0  0  0  0  0  0  0  0  0  0  0  0
   -4.8337   13.1004   -1.8149 C   0  0  0  0  0  0  0  0  0  0  0  0
   -1.6136   15.1947    1.9376 N   0  0  0  0  0  0  0  0  0  0  0  0
   -0.7171   14.6823   -0.2388 N   0  0  0  0  0  0  0  0  0  0  0  0
   -4.6214   14.5446   -1.8885 N   0  0  1  0  0  0  0  0  0  0  0  0
   -7.0797   11.1648   -6.3009 H   0  0  0  0  0  0  0  0  0  0  0  0
   -8.5138   11.9406   -4.4310 H   0  0  0  0  0  0  0  0  0  0  0  0
   -4.6092   11.2820   -6.1005 H   0  0  0  0  0  0  0  0  0  0  0  0
   -7.4862   12.8321   -2.3660 H   0  0  0  0  0  0  0  0  0  0  0  0
   -3.5720   12.1717   -4.0399 H   0  0  0  0  0  0  0  0  0  0  0  0
   -3.6446   15.4873    2.0675 H   0  0  0  0  0  0  0  0  0  0  0  0
    0.3822   14.8556    1.5068 H   0  0  0  0  0  0  0  0  0  0  0  0
   -5.1760   14.7062    0.1610 H   0  0  0  0  0  0  0  0  0  0  0  0
   -4.7130   16.2266   -0.6321 H   0  0  0  0  0  0  0  0  0  0  0  0
   -1.3323   14.9950   -2.7530 H   0  0  0  0  0  0  0  0  0  0  0  0
   -1.9963   13.3940   -2.3942 H   0  0  0  0  0  0  0  0  0  0  0  0
   -3.4617   16.0097   -2.9037 H   0  0  0  0  0  0  0  0  0  0  0  0
   -3.6458   14.4866   -3.7813 H   0  0  0  0  0  0  0  0  0  0  0  0
   -5.4690   12.8967   -0.9460 H   0  0  0  0  0  0  0  0  0  0  0  0
   -3.8637   12.6285   -1.6264 H   0  0  0  0  0  0  0  0  0  0  0  0
  1  2  1  0  0  0  0
  1  3  2  0  0  0  0
  2  4  2  0  0  0  0
  3  5  1  0  0  0  0
  4  9  1  0  0  0  0
  5  9  2  0  0  0  0
  6  8  1  0  0  0  0
  6 15  2  0  0  0  0
  7 15  1  0  0  0  0
  7 16  2  0  0  0  0
  8 10  2  0  0  0  0
  8 11  1  0  0  0  0
  9 14  1  0  0  0  0
 10 12  1  0  0  0  0
 10 16  1  0  0  0  0
 11 17  1  0  0  0  0
 12 13  1  0  0  0  0
 13 17  1  0  0  0  0
 14 17  1  0  0  0  0
  1 18  1  0  0  0  0
  2 19  1  0  0  0  0
  3 20  1  0  0  0  0
  4 21  1  0  0  0  0
  5 22  1  0  0  0  0
  6 23  1  0  0  0  0
  7 24  1  0  0  0  0
 11 25  1  0  0  0  0
 11 26  1  0  0  0  0
 12 27  1  0  0  0  0
 12 28  1  0  0  0  0
 13 29  1  0  0  0  0
 13 30  1  0  0  0  0
 14 31  1  0  0  0  0
 14 32  1  0  0  0  0
M  END
> <HYBRID receptor title>
5S18(A) > WOY(A-201)

> <HYBRID receptor filename>
5s18.oedu

> <HYBRID Chemgauss4 score>
-5.379772

> <HYBRID receptor title>
5S18(A) > WOY(A-201)

> <HYBRID receptor filename>
5s18.oedu

> <Dock Type>
Hybrid

$$$$
MOL0008_1
  -OEChem-06022418243D

 16 17  0     0  0  0  0  0  0999 V2000
   -1.3364   14.6360   -0.7713 C   0  0  0  0  0  0  0  0  0  0  0  0
   -2.5220   14.8412   -0.1165 C   0  0  0  0  0  0  0  0  0  0  0  0
   -2.4826   15.0186    1.2571 C   0  0  0  0  0  0  0  0  0  0  0  0
   -0.2314   14.8030    1.2226 C   0  0  0  0  0  0  0  0  0  0  0  0
   -3.9221   14.8703   -0.6142 C   0  0  0  0  0  0  0  0  0  0  0  0
   -4.6809   15.3579    0.6391 C   0  0  0  0  0  0  0  0  0  0  0  0
   -0.1575   14.6160   -0.1168 N   0  0  0  0  0  0  0  0  0  0  0  0
   -1.3417   15.0042    1.9654 N   0  0  0  0  0  0  0  0  0  0  0  0
   -3.7770   15.2011    1.7661 N   0  0  0  0  0  0  0  0  0  0  0  0
    1.2534   14.7795    2.0720 Cl  0  0  0  0  0  0  0  0  0  0  0  0
   -1.2873   14.4773   -1.8416 H   0  0  0  0  0  0  0  0  0  0  0  0
   -4.0471   15.5643   -1.4502 H   0  0  0  0  0  0  0  0  0  0  0  0
   -4.2452   13.8650   -0.9027 H   0  0  0  0  0  0  0  0  0  0  0  0
   -4.9452   16.4166    0.5308 H   0  0  0  0  0  0  0  0  0  0  0  0
   -5.6071   14.7938    0.7888 H   0  0  0  0  0  0  0  0  0  0  0  0
   -3.9854   15.4128    2.7295 H   0  0  0  0  0  0  0  0  0  0  0  0
  1  2  1  0  0  0  0
  1  7  2  0  0  0  0
  2  3  2  0  0  0  0
  2  5  1  0  0  0  0
  3  8  1  0  0  0  0
  3  9  1  0  0  0  0
  4  7  1  0  0  0  0
  4  8  2  0  0  0  0
  4 10  1  0  0  0  0
  5  6  1  0  0  0  0
  6  9  1  0  0  0  0
  1 11  1  0  0  0  0
  5 12  1  0  0  0  0
  5 13  1  0  0  0  0
  6 14  1  0  0  0  0
  6 15  1  0  0  0  0
  9 16  1  0  0  0  0
M  END
> <HYBRID receptor title>
5S18(A) > WOY(A-201)

> <HYBRID receptor filename>
5s18.oedu

> <HYBRID Chemgauss4 score>
-5.374123

> <HYBRID receptor title>
5S18(A) > WOY(A-201)

> <HYBRID receptor filename>
5s18.oedu

> <Dock Type>
Hybrid

$$$$
MOL0003_1
  -OEChem-06022418243D

 19 20  0     0  0  0  0  0  0999 V2000
   -2.3519   14.9764   -1.0954 C   0  0  0  0  0  0  0  0  0  0  0  0
   -3.3018   15.3107   -0.1668 C   0  0  0  0  0  0  0  0  0  0  0  0
   -2.9007   15.4454    1.1525 C   0  0  0  0  0  0  0  0  0  0  0  0
   -0.7748   14.9515    0.5589 C   0  0  0  0  0  0  0  0  0  0  0  0
   -4.7662   15.5273   -0.2999 C   0  0  0  0  0  0  0  0  0  0  0  0
   -5.1218   16.0725    1.1003 C   0  0  0  0  0  0  0  0  0  0  0  0
    0.6495   14.7489    0.9532 C   0  0  0  0  0  0  0  0  0  0  0  0
   -1.0599   14.7922   -0.7555 N   0  0  0  0  0  0  0  0  0  0  0  0
   -1.6312   15.2700    1.5540 N   0  0  0  0  0  0  0  0  0  0  0  0
   -3.9942   15.7744    1.9672 N   0  0  0  0  0  0  0  0  0  0  0  0
   -2.5904   14.8410   -2.1432 H   0  0  0  0  0  0  0  0  0  0  0  0
   -5.0055   16.2532   -1.0820 H   0  0  0  0  0  0  0  0  0  0  0  0
   -5.2763   14.5786   -0.4928 H   0  0  0  0  0  0  0  0  0  0  0  0
   -5.2673   17.1584    1.0552 H   0  0  0  0  0  0  0  0  0  0  0  0
   -6.0457   15.6246    1.4796 H   0  0  0  0  0  0  0  0  0  0  0  0
    1.2005   15.6953    0.8926 H   0  0  0  0  0  0  0  0  0  0  0  0
    0.7281   14.3654    1.9786 H   0  0  0  0  0  0  0  0  0  0  0  0
    1.1427   14.0164    0.3012 H   0  0  0  0  0  0  0  0  0  0  0  0
   -3.9287   15.9843    2.9511 H   0  0  0  0  0  0  0  0  0  0  0  0
  1  2  1  0  0  0  0
  1  8  2  0  0  0  0
  2  3  2  0  0  0  0
  2  5  1  0  0  0  0
  3  9  1  0  0  0  0
  3 10  1  0  0  0  0
  4  7  1  0  0  0  0
  4  8  1  0  0  0  0
  4  9  2  0  0  0  0
  5  6  1  0  0  0  0
  6 10  1  0  0  0  0
  1 11  1  0  0  0  0
  5 12  1  0  0  0  0
  5 13  1  0  0  0  0
  6 14  1  0  0  0  0
  6 15  1  0  0  0  0
  7 16  1  0  0  0  0
  7 17  1  0  0  0  0
  7 18  1  0  0  0  0
 10 19  1  0  0  0  0
M  END
> <HYBRID receptor title>
5S18(A) > WOY(A-201)

> <HYBRID receptor filename>
5s18.oedu

> <HYBRID Chemgauss4 score>
-5.358232

> <HYBRID receptor title>
5S18(A) > WOY(A-201)

> <HYBRID receptor filename>
5s18.oedu

> <Dock Type>
Hybrid

$$$$
MOL0098_2
  -OEChem-06022418243D

 26 28  0     0  0  0  0  0  0999 V2000
    1.4508   14.0809   -1.7654 C   0  0  0  0  0  0  0  0  0  0  0  0
    0.1286   14.0478   -1.3223 C   0  0  0  0  0  0  0  0  0  0  0  0
    1.7813   14.7872   -2.9220 C   0  0  0  0  0  0  0  0  0  0  0  0
   -0.5326   15.4273   -3.1923 C   0  0  0  0  0  0  0  0  0  0  0  0
   -4.4551   14.7451   -2.0899 C   0  0  0  0  0  0  0  0  0  0  0  0
   -0.8631   14.7210   -2.0357 C   0  0  0  0  0  0  0  0  0  0  0  0
   -4.7513   14.6392   -0.7567 C   0  0  0  0  0  0  0  0  0  0  0  0
    0.7896   15.4604   -3.6354 C   0  0  0  0  0  0  0  0  0  0  0  0
   -3.6966   14.5524    0.1376 C   0  0  0  0  0  0  0  0  0  0  0  0
   -2.2283   14.6894   -1.5773 C   0  0  0  0  0  0  0  0  0  0  0  0
   -6.0549   14.5522   -0.0482 C   0  0  0  0  0  0  0  0  0  0  0  0
   -5.6089   14.6690    1.4255 C   0  0  0  0  0  0  0  0  0  0  0  0
   -3.1824   14.7773   -2.5346 N   0  0  0  0  0  0  0  0  0  0  0  0
   -2.4091   14.5739   -0.2436 N   0  0  0  0  0  0  0  0  0  0  0  0
   -4.1747   14.4360    1.4512 N   0  0  0  0  0  0  0  0  0  0  0  0
    1.1077   16.1392   -4.7454 F   0  0  0  0  0  0  0  0  0  0  0  0
    2.2233   13.5575   -1.2097 H   0  0  0  0  0  0  0  0  0  0  0  0
   -0.1131   13.4924   -0.4191 H   0  0  0  0  0  0  0  0  0  0  0  0
    2.8109   14.8145   -3.2661 H   0  0  0  0  0  0  0  0  0  0  0  0
   -1.2939   15.9588   -3.7582 H   0  0  0  0  0  0  0  0  0  0  0  0
   -5.2246   14.8051   -2.8498 H   0  0  0  0  0  0  0  0  0  0  0  0
   -6.7291   15.3672   -0.3259 H   0  0  0  0  0  0  0  0  0  0  0  0
   -6.5291   13.5845   -0.2399 H   0  0  0  0  0  0  0  0  0  0  0  0
   -5.8195   15.6767    1.8035 H   0  0  0  0  0  0  0  0  0  0  0  0
   -6.1410   13.9537    2.0608 H   0  0  0  0  0  0  0  0  0  0  0  0
   -3.5888   14.4241    2.2714 H   0  0  0  0  0  0  0  0  0  0  0  0
  1  2  1  0  0  0  0
  1  3  2  0  0  0  0
  2  6  2  0  0  0  0
  3  8  1  0  0  0  0
  4  6  1  0  0  0  0
  4  8  2  0  0  0  0
  5  7  1  0  0  0  0
  5 13  2  0  0  0  0
  6 10  1  0  0  0  0
  7  9  2  0  0  0  0
  7 11  1  0  0  0  0
  8 16  1  0  0  0  0
  9 14  1  0  0  0  0
  9 15  1  0  0  0  0
 10 13  1  0  0  0  0
 10 14  2  0  0  0  0
 11 12  1  0  0  0  0
 12 15  1  0  0  0  0
  1 17  1  0  0  0  0
  2 18  1  0  0  0  0
  3 19  1  0  0  0  0
  4 20  1  0  0  0  0
  5 21  1  0  0  0  0
 11 22  1  0  0  0  0
 11 23  1  0  0  0  0
 12 24  1  0  0  0  0
 12 25  1  0  0  0  0
 15 26  1  0  0  0  0
M  END
> <HYBRID receptor title>
5S18(A) > WOY(A-201)

> <HYBRID receptor filename>
5s18.oedu

> <HYBRID Chemgauss4 score>
-5.321464

> <HYBRID receptor title>
5S18(A) > WOY(A-201)

> <HYBRID receptor filename>
5s18.oedu

> <Dock Type>
Hybrid

$$$$
MOL0048_1
  -OEChem-06022418243D

 20 21  0     0  0  0  0  0  0999 V2000
   -0.5482   14.5526   -0.1206 C   0  0  0  0  0  0  0  0  0  0  0  0
   -0.5618   14.6766    1.2594 C   0  0  0  0  0  0  0  0  0  0  0  0
   -2.8098   15.1488    1.2889 C   0  0  0  0  0  0  0  0  0  0  0  0
   -1.7478   14.7348   -0.8097 C   0  0  0  0  0  0  0  0  0  0  0  0
   -2.9086   15.0592   -0.0953 C   0  0  0  0  0  0  0  0  0  0  0  0
   -1.7869   14.6462   -2.3133 C   0  0  0  0  0  0  0  0  0  0  0  0
   -4.2278   15.2348   -0.7962 C   0  0  0  0  0  0  0  0  0  0  0  0
   -3.2118   14.5030   -2.8545 C   0  0  0  0  0  0  0  0  0  0  0  0
   -1.6642   14.9681    1.9837 N   0  0  0  0  0  0  0  0  0  0  0  0
   -4.0935   15.4929   -2.2352 N   0  0  0  0  0  0  0  0  0  0  0  0
    0.3732   14.3207   -0.6439 H   0  0  0  0  0  0  0  0  0  0  0  0
    0.3466   14.5404    1.8370 H   0  0  0  0  0  0  0  0  0  0  0  0
   -3.6791   15.3744    1.8993 H   0  0  0  0  0  0  0  0  0  0  0  0
   -1.3295   15.5569   -2.7206 H   0  0  0  0  0  0  0  0  0  0  0  0
   -1.1915   13.7903   -2.6529 H   0  0  0  0  0  0  0  0  0  0  0  0
   -4.8342   14.3345   -0.6378 H   0  0  0  0  0  0  0  0  0  0  0  0
   -4.7644   16.0807   -0.3521 H   0  0  0  0  0  0  0  0  0  0  0  0
   -3.1997   14.6528   -3.9397 H   0  0  0  0  0  0  0  0  0  0  0  0
   -3.5946   13.4899   -2.6758 H   0  0  0  0  0  0  0  0  0  0  0  0
   -5.0154   15.4478   -2.6683 H   0  0  0  0  0  0  0  0  0  0  0  0
  1  2  1  0  0  0  0
  1  4  2  0  0  0  0
  2  9  2  0  0  0  0
  3  5  2  0  0  0  0
  3  9  1  0  0  0  0
  4  5  1  0  0  0  0
  4  6  1  0  0  0  0
  5  7  1  0  0  0  0
  6  8  1  0  0  0  0
  7 10  1  0  0  0  0
  8 10  1  0  0  0  0
  1 11  1  0  0  0  0
  2 12  1  0  0  0  0
  3 13  1  0  0  0  0
  6 14  1  0  0  0  0
  6 15  1  0  0  0  0
  7 16  1  0  0  0  0
  7 17  1  0  0  0  0
  8 18  1  0  0  0  0
  8 19  1  0  0  0  0
 10 20  1  0  0  0  0
M  END
> <HYBRID receptor title>
5S18(A) > WOY(A-201)

> <HYBRID receptor filename>
5s18.oedu

> <HYBRID Chemgauss4 score>
-5.308222

> <HYBRID receptor title>
5S18(A) > WOY(A-201)

> <HYBRID receptor filename>
5s18.oedu

> <Dock Type>
Hybrid

$$$$
MOL0067_1
  -OEChem-06022418243D

 20 21  0     0  0  0  0  0  0999 V2000
    0.3321   14.7119   -0.3952 C   0  0  0  0  0  0  0  0  0  0  0  0
   -0.8596   14.4672   -1.0685 C   0  0  0  0  0  0  0  0  0  0  0  0
    0.2639   15.0115    0.9558 C   0  0  0  0  0  0  0  0  0  0  0  0
   -2.0268   14.8363    0.9705 C   0  0  0  0  0  0  0  0  0  0  0  0
   -2.0660   14.5287   -0.3799 C   0  0  0  0  0  0  0  0  0  0  0  0
   -4.6713   15.1320   -0.7733 C   0  0  0  0  0  0  0  0  0  0  0  0
   -3.6577   14.8109   -2.5457 C   0  0  0  0  0  0  0  0  0  0  0  0
   -3.4392   14.2560   -1.1154 C   0  0  0  0  0  0  0  0  0  0  0  0
   -0.8889   15.0803    1.6586 N   0  0  0  0  0  0  0  0  0  0  0  0
   -5.0757   15.0548   -2.1958 N   0  0  0  0  0  0  0  0  0  0  0  0
    1.2842   14.6695   -0.9116 H   0  0  0  0  0  0  0  0  0  0  0  0
   -0.8406   14.2294   -2.1283 H   0  0  0  0  0  0  0  0  0  0  0  0
    1.1649   15.2105    1.5266 H   0  0  0  0  0  0  0  0  0  0  0  0
   -2.9370   14.8980    1.5587 H   0  0  0  0  0  0  0  0  0  0  0  0
   -5.3825   14.6866   -0.0709 H   0  0  0  0  0  0  0  0  0  0  0  0
   -4.4446   16.1526   -0.4405 H   0  0  0  0  0  0  0  0  0  0  0  0
   -3.1050   15.7279   -2.7847 H   0  0  0  0  0  0  0  0  0  0  0  0
   -3.5042   14.0913   -3.3562 H   0  0  0  0  0  0  0  0  0  0  0  0
   -3.6767   13.1810   -1.0564 H   0  0  0  0  0  0  0  0  0  0  0  0
   -5.6771   14.2544   -2.3941 H   0  0  0  0  0  0  0  0  0  0  0  0
  1  2  2  0  0  0  0
  1  3  1  0  0  0  0
  2  5  1  0  0  0  0
  3  9  2  0  0  0  0
  4  5  2  0  0  0  0
  4  9  1  0  0  0  0
  5  8  1  0  0  0  0
  6  8  1  0  0  0  0
  6 10  1  0  0  0  0
  7  8  1  0  0  0  0
  7 10  1  0  0  0  0
  1 11  1  0  0  0  0
  2 12  1  0  0  0  0
  3 13  1  0  0  0  0
  4 14  1  0  0  0  0
  6 15  1  0  0  0  0
  6 16  1  0  0  0  0
  7 17  1  0  0  0  0
  7 18  1  0  0  0  0
  8 19  1  0  0  0  0
 10 20  1  0  0  0  0
M  END
> <HYBRID receptor title>
5S18(A) > WOY(A-201)

> <HYBRID receptor filename>
5s18.oedu

> <HYBRID Chemgauss4 score>
-5.284515

> <HYBRID receptor title>
5S18(A) > WOY(A-201)

> <HYBRID receptor filename>
5s18.oedu

> <Dock Type>
Hybrid

$$$$
MOL0102_5
  -OEChem-06022418243D

 26 28  0     0  0  0  0  0  0999 V2000
    1.0365   15.2086   -3.5083 C   0  0  0  0  0  0  0  0  0  0  0  0
    2.0319   15.1512   -2.5328 C   0  0  0  0  0  0  0  0  0  0  0  0
   -0.3061   15.1197   -3.1408 C   0  0  0  0  0  0  0  0  0  0  0  0
    1.6846   15.0047   -1.1898 C   0  0  0  0  0  0  0  0  0  0  0  0
   -4.2251   14.8689   -2.1703 C   0  0  0  0  0  0  0  0  0  0  0  0
   -0.6535   14.9732   -1.7978 C   0  0  0  0  0  0  0  0  0  0  0  0
   -4.6336   14.7316   -0.8700 C   0  0  0  0  0  0  0  0  0  0  0  0
    0.3419   14.9158   -0.8223 C   0  0  0  0  0  0  0  0  0  0  0  0
   -3.6594   14.6688    0.1132 C   0  0  0  0  0  0  0  0  0  0  0  0
   -2.0516   14.8853   -1.4629 C   0  0  0  0  0  0  0  0  0  0  0  0
   -5.9904   14.5867   -0.2811 C   0  0  0  0  0  0  0  0  0  0  0  0
   -5.6809   14.6964    1.2277 C   0  0  0  0  0  0  0  0  0  0  0  0
   -2.9202   14.9538   -2.4999 N   0  0  0  0  0  0  0  0  0  0  0  0
   -2.3449   14.7426   -0.1519 N   0  0  0  0  0  0  0  0  0  0  0  0
   -4.2469   14.5148    1.3777 N   0  0  0  0  0  0  0  0  0  0  0  0
   -0.0305   14.7351    0.8571 Cl  0  0  0  0  0  0  0  0  0  0  0  0
    1.3072   15.3226   -4.5539 H   0  0  0  0  0  0  0  0  0  0  0  0
    3.0772   15.2205   -2.8191 H   0  0  0  0  0  0  0  0  0  0  0  0
   -1.0687   15.1663   -3.9148 H   0  0  0  0  0  0  0  0  0  0  0  0
    2.4731   14.9618   -0.4426 H   0  0  0  0  0  0  0  0  0  0  0  0
   -4.9263   14.9130   -2.9946 H   0  0  0  0  0  0  0  0  0  0  0  0
   -6.6674   15.3812   -0.6074 H   0  0  0  0  0  0  0  0  0  0  0  0
   -6.4096   13.6056   -0.5261 H   0  0  0  0  0  0  0  0  0  0  0  0
   -5.9614   15.6898    1.5980 H   0  0  0  0  0  0  0  0  0  0  0  0
   -6.2399   13.9526    1.8044 H   0  0  0  0  0  0  0  0  0  0  0  0
   -3.7355   14.5112    2.2464 H   0  0  0  0  0  0  0  0  0  0  0  0
  1  2  1  0  0  0  0
  1  3  2  0  0  0  0
  2  4  2  0  0  0  0
  3  6  1  0  0  0  0
  4  8  1  0  0  0  0
  5  7  1  0  0  0  0
  5 13  2  0  0  0  0
  6  8  2  0  0  0  0
  6 10  1  0  0  0  0
  7  9  2  0  0  0  0
  7 11  1  0  0  0  0
  8 16  1  0  0  0  0
  9 14  1  0  0  0  0
  9 15  1  0  0  0  0
 10 13  1  0  0  0  0
 10 14  2  0  0  0  0
 11 12  1  0  0  0  0
 12 15  1  0  0  0  0
  1 17  1  0  0  0  0
  2 18  1  0  0  0  0
  3 19  1  0  0  0  0
  4 20  1  0  0  0  0
  5 21  1  0  0  0  0
 11 22  1  0  0  0  0
 11 23  1  0  0  0  0
 12 24  1  0  0  0  0
 12 25  1  0  0  0  0
 15 26  1  0  0  0  0
M  END
> <HYBRID receptor title>
5S18(A) > WOY(A-201)

> <HYBRID receptor filename>
5s18.oedu

> <HYBRID Chemgauss4 score>
-5.254626

> <HYBRID receptor title>
5S18(A) > WOY(A-201)

> <HYBRID receptor filename>
5s18.oedu

> <Dock Type>
Hybrid

$$$$
MOL0064_1
  -OEChem-06022418243D

 16 17  0     0  0  0  0  0  0999 V2000
   -1.0231   14.5916   -0.8526 C   0  0  0  0  0  0  0  0  0  0  0  0
   -2.2411   14.8880   -0.3003 C   0  0  0  0  0  0  0  0  0  0  0  0
   -2.2827   15.2047    1.0480 C   0  0  0  0  0  0  0  0  0  0  0  0
   -0.0405   14.9392    1.1817 C   0  0  0  0  0  0  0  0  0  0  0  0
   -3.6060   14.8953   -0.8883 C   0  0  0  0  0  0  0  0  0  0  0  0
   -4.4278   15.5249    0.2573 C   0  0  0  0  0  0  0  0  0  0  0  0
    0.1117   14.6141   -0.1243 N   0  0  0  0  0  0  0  0  0  0  0  0
   -1.1890   15.2390    1.8266 N   0  0  0  0  0  0  0  0  0  0  0  0
   -3.6007   15.4657    1.4508 N   0  0  0  0  0  0  0  0  0  0  0  0
    1.7161   14.9792    2.3404 I   0  0  0  0  0  0  0  0  0  0  0  0
   -0.9119   14.3231   -1.8962 H   0  0  0  0  0  0  0  0  0  0  0  0
   -3.6589   15.5026   -1.7960 H   0  0  0  0  0  0  0  0  0  0  0  0
   -3.9381   13.8731   -1.0951 H   0  0  0  0  0  0  0  0  0  0  0  0
   -4.6552   16.5724    0.0252 H   0  0  0  0  0  0  0  0  0  0  0  0
   -5.3769   14.9990    0.4026 H   0  0  0  0  0  0  0  0  0  0  0  0
   -3.8629   15.7786    2.3725 H   0  0  0  0  0  0  0  0  0  0  0  0
  1  2  1  0  0  0  0
  1  7  2  0  0  0  0
  2  3  2  0  0  0  0
  2  5  1  0  0  0  0
  3  8  1  0  0  0  0
  3  9  1  0  0  0  0
  4  7  1  0  0  0  0
  4  8  2  0  0  0  0
  4 10  1  0  0  0  0
  5  6  1  0  0  0  0
  6  9  1  0  0  0  0
  1 11  1  0  0  0  0
  5 12  1  0  0  0  0
  5 13  1  0  0  0  0
  6 14  1  0  0  0  0
  6 15  1  0  0  0  0
  9 16  1  0  0  0  0
M  END
> <HYBRID receptor title>
5S18(A) > WOY(A-201)

> <HYBRID receptor filename>
5s18.oedu

> <HYBRID Chemgauss4 score>
-5.252691

> <HYBRID receptor title>
5S18(A) > WOY(A-201)

> <HYBRID receptor filename>
5s18.oedu

> <Dock Type>
Hybrid

$$$$
MOL0161_1
  -OEChem-06022418243D

 17 18  0     0  0  0  0  0  0999 V2000
   -2.8850   14.7030   -1.1055 C   0  0  0  0  0  0  0  0  0  0  0  0
   -1.5572   14.7362   -0.6939 C   0  0  0  0  0  0  0  0  0  0  0  0
   -3.8630   14.8399   -0.1402 C   0  0  0  0  0  0  0  0  0  0  0  0
   -3.5091   14.9962    1.1966 C   0  0  0  0  0  0  0  0  0  0  0  0
   -1.2876   14.8985    0.6628 C   0  0  0  0  0  0  0  0  0  0  0  0
   -5.3474   14.8164   -0.2886 C   0  0  0  0  0  0  0  0  0  0  0  0
   -5.8129   15.1933    1.1335 C   0  0  0  0  0  0  0  0  0  0  0  0
   -2.2336   15.0283    1.6254 N   0  0  0  0  0  0  0  0  0  0  0  0
   -4.6516   15.1055    2.0003 N   0  0  0  0  0  0  0  0  0  0  0  0
    0.3301   14.9447    1.2383 Cl  0  0  0  0  0  0  0  0  0  0  0  0
   -3.1390   14.5726   -2.1514 H   0  0  0  0  0  0  0  0  0  0  0  0
   -0.7588   14.6343   -1.4218 H   0  0  0  0  0  0  0  0  0  0  0  0
   -5.6934   15.5457   -1.0267 H   0  0  0  0  0  0  0  0  0  0  0  0
   -5.6864   13.8115   -0.5592 H   0  0  0  0  0  0  0  0  0  0  0  0
   -6.1986   16.2195    1.1438 H   0  0  0  0  0  0  0  0  0  0  0  0
   -6.6145   14.5311    1.4766 H   0  0  0  0  0  0  0  0  0  0  0  0
   -4.6371   15.2760    2.9936 H   0  0  0  0  0  0  0  0  0  0  0  0
  1  2  2  0  0  0  0
  1  3  1  0  0  0  0
  2  5  1  0  0  0  0
  3  4  2  0  0  0  0
  3  6  1  0  0  0  0
  4  8  1  0  0  0  0
  4  9  1  0  0  0  0
  5  8  2  0  0  0  0
  5 10  1  0  0  0  0
  6  7  1  0  0  0  0
  7  9  1  0  0  0  0
  1 11  1  0  0  0  0
  2 12  1  0  0  0  0
  6 13  1  0  0  0  0
  6 14  1  0  0  0  0
  7 15  1  0  0  0  0
  7 16  1  0  0  0  0
  9 17  1  0  0  0  0
M  END
> <HYBRID receptor title>
5S18(A) > WOY(A-201)

> <HYBRID receptor filename>
5s18.oedu

> <HYBRID Chemgauss4 score>
-5.244192

> <HYBRID receptor title>
5S18(A) > WOY(A-201)

> <HYBRID receptor filename>
5s18.oedu

> <Dock Type>
Hybrid

$$$$
MOL0154_1
  -OEChem-06022418243D

 22 23  0     0  0  0  0  0  0999 V2000
   -0.5135   14.9350    0.7340 C   0  0  0  0  0  0  0  0  0  0  0  0
   -2.9506   15.1530   -0.3759 C   0  0  0  0  0  0  0  0  0  0  0  0
   -1.8174   14.8938   -1.1397 C   0  0  0  0  0  0  0  0  0  0  0  0
   -2.7399   15.3103    0.9829 C   0  0  0  0  0  0  0  0  0  0  0  0
   -4.2995   15.3213   -1.0061 C   0  0  0  0  0  0  0  0  0  0  0  0
   -1.9453   14.6722   -2.6250 C   0  0  0  0  0  0  0  0  0  0  0  0
   -4.3437   14.7735   -2.4354 C   0  0  0  0  0  0  0  0  0  0  0  0
   -3.8735   15.6274    1.9025 C   0  0  0  0  0  0  0  0  0  0  0  0
   -0.5833   14.7691   -0.6008 N   0  0  0  0  0  0  0  0  0  0  0  0
   -1.5316   15.2035    1.5718 N   0  0  0  0  0  0  0  0  0  0  0  0
   -3.1778   15.2290   -3.1950 N   0  0  0  0  0  0  0  0  0  0  0  0
    0.4687   14.8416    1.1811 H   0  0  0  0  0  0  0  0  0  0  0  0
   -5.0657   14.8057   -0.4157 H   0  0  0  0  0  0  0  0  0  0  0  0
   -4.5451   16.3907   -1.0180 H   0  0  0  0  0  0  0  0  0  0  0  0
   -1.0893   15.1285   -3.1350 H   0  0  0  0  0  0  0  0  0  0  0  0
   -1.9027   13.5949   -2.8254 H   0  0  0  0  0  0  0  0  0  0  0  0
   -4.3802   13.6766   -2.4289 H   0  0  0  0  0  0  0  0  0  0  0  0
   -5.2590   15.1145   -2.9313 H   0  0  0  0  0  0  0  0  0  0  0  0
   -4.3274   14.7033    2.2782 H   0  0  0  0  0  0  0  0  0  0  0  0
   -3.5344   16.2237    2.7584 H   0  0  0  0  0  0  0  0  0  0  0  0
   -4.6464   16.2140    1.3907 H   0  0  0  0  0  0  0  0  0  0  0  0
   -3.1325   16.2476   -3.1627 H   0  0  0  0  0  0  0  0  0  0  0  0
  1  9  1  0  0  0  0
  1 10  2  0  0  0  0
  2  3  1  0  0  0  0
  2  4  2  0  0  0  0
  2  5  1  0  0  0  0
  3  6  1  0  0  0  0
  3  9  2  0  0  0  0
  4  8  1  0  0  0  0
  4 10  1  0  0  0  0
  5  7  1  0  0  0  0
  6 11  1  0  0  0  0
  7 11  1  0  0  0  0
  1 12  1  0  0  0  0
  5 13  1  0  0  0  0
  5 14  1  0  0  0  0
  6 15  1  0  0  0  0
  6 16  1  0  0  0  0
  7 17  1  0  0  0  0
  7 18  1  0  0  0  0
  8 19  1  0  0  0  0
  8 20  1  0  0  0  0
  8 21  1  0  0  0  0
 11 22  1  0  0  0  0
M  END
> <HYBRID receptor title>
5S18(A) > WOY(A-201)

> <HYBRID receptor filename>
5s18.oedu

> <HYBRID Chemgauss4 score>
-5.241082

> <HYBRID receptor title>
5S18(A) > WOY(A-201)

> <HYBRID receptor filename>
5s18.oedu

> <Dock Type>
Hybrid

$$$$
MOL0080_1
  -OEChem-06022418243D

 23 24  0     0  0  0  0  0  0999 V2000
   -3.6567   15.0942    1.4453 C   0  0  0  0  0  0  0  0  0  0  0  0
   -1.9508   14.6050   -0.5720 C   0  0  0  0  0  0  0  0  0  0  0  0
   -1.5121   14.7563    0.7393 C   0  0  0  0  0  0  0  0  0  0  0  0
   -3.3176   14.7025   -0.7663 C   0  0  0  0  0  0  0  0  0  0  0  0
   -1.0003   14.2844   -1.6850 C   0  0  0  0  0  0  0  0  0  0  0  0
   -0.0383   14.7028    1.0506 C   0  0  0  0  0  0  0  0  0  0  0  0
    0.4560   14.5632   -1.3018 C   0  0  0  0  0  0  0  0  0  0  0  0
   -5.2568   14.6660   -2.1425 C   0  0  0  0  0  0  0  0  0  0  0  0
   -2.3516   15.0139    1.7678 N   0  0  0  0  0  0  0  0  0  0  0  0
   -4.1999   14.9506    0.2228 N   0  0  0  0  0  0  0  0  0  0  0  0
    0.7515   14.0141    0.0230 N   0  0  0  0  0  0  0  0  0  0  0  0
   -3.8437   14.5522   -2.0225 O   0  0  0  0  0  0  0  0  0  0  0  0
   -4.3432   15.2954    2.2587 H   0  0  0  0  0  0  0  0  0  0  0  0
   -1.0903   13.2295   -1.9691 H   0  0  0  0  0  0  0  0  0  0  0  0
   -1.2713   14.8925   -2.5574 H   0  0  0  0  0  0  0  0  0  0  0  0
    0.3468   15.7227    1.1599 H   0  0  0  0  0  0  0  0  0  0  0  0
    0.0992   14.2013    2.0161 H   0  0  0  0  0  0  0  0  0  0  0  0
    1.1402   14.1347   -2.0452 H   0  0  0  0  0  0  0  0  0  0  0  0
    0.6341   15.6441   -1.2970 H   0  0  0  0  0  0  0  0  0  0  0  0
   -5.5468   14.5271   -3.1869 H   0  0  0  0  0  0  0  0  0  0  0  0
   -5.5749   15.6513   -1.7928 H   0  0  0  0  0  0  0  0  0  0  0  0
   -5.7288   13.8942   -1.5300 H   0  0  0  0  0  0  0  0  0  0  0  0
    1.7442   14.1367    0.2239 H   0  0  0  0  0  0  0  0  0  0  0  0
  1  9  1  0  0  0  0
  1 10  2  0  0  0  0
  2  3  1  0  0  0  0
  2  4  2  0  0  0  0
  2  5  1  0  0  0  0
  3  6  1  0  0  0  0
  3  9  2  0  0  0  0
  4 10  1  0  0  0  0
  4 12  1  0  0  0  0
  5  7  1  0  0  0  0
  6 11  1  0  0  0  0
  7 11  1  0  0  0  0
  8 12  1  0  0  0  0
  1 13  1  0  0  0  0
  5 14  1  0  0  0  0
  5 15  1  0  0  0  0
  6 16  1  0  0  0  0
  6 17  1  0  0  0  0
  7 18  1  0  0  0  0
  7 19  1  0  0  0  0
  8 20  1  0  0  0  0
  8 21  1  0  0  0  0
  8 22  1  0  0  0  0
 11 23  1  0  0  0  0
M  END
> <HYBRID receptor title>
5S18(A) > WOY(A-201)

> <HYBRID receptor filename>
5s18.oedu

> <HYBRID Chemgauss4 score>
-5.187146

> <HYBRID receptor title>
5S18(A) > WOY(A-201)

> <HYBRID receptor filename>
5s18.oedu

> <Dock Type>
Hybrid

$$$$
MOL0025_1
  -OEChem-06022418243D

 14 15  0     0  0  0  0  0  0999 V2000
   -2.6144   14.4793   -2.2171 C   0  0  0  0  0  0  0  0  0  0  0  0
   -2.8699   14.8629    1.3315 C   0  0  0  0  0  0  0  0  0  0  0  0
   -4.8055   14.6398   -1.6696 C   0  0  0  0  0  0  0  0  0  0  0  0
   -0.6788   14.7023    0.7840 C   0  0  0  0  0  0  0  0  0  0  0  0
   -2.2194   14.5987   -0.8984 C   0  0  0  0  0  0  0  0  0  0  0  0
   -3.2650   14.7434    0.0128 C   0  0  0  0  0  0  0  0  0  0  0  0
   -3.8944   14.4950   -2.6426 N   0  0  0  0  0  0  0  0  0  0  0  0
   -1.5900   14.8470    1.7570 N   0  0  0  0  0  0  0  0  0  0  0  0
   -0.9234   14.5760   -0.5324 N   0  0  0  0  0  0  0  0  0  0  0  0
   -4.5609   14.7662   -0.3532 N   0  0  0  0  0  0  0  0  0  0  0  0
   -1.8794   14.3618   -3.0086 H   0  0  0  0  0  0  0  0  0  0  0  0
   -3.6052   14.9802    2.1228 H   0  0  0  0  0  0  0  0  0  0  0  0
   -5.8447   14.6569   -1.9737 H   0  0  0  0  0  0  0  0  0  0  0  0
    0.3603   14.6854    1.0881 H   0  0  0  0  0  0  0  0  0  0  0  0
  1  5  1  0  0  0  0
  1  7  2  0  0  0  0
  2  6  1  0  0  0  0
  2  8  2  0  0  0  0
  3  7  1  0  0  0  0
  3 10  2  0  0  0  0
  4  8  1  0  0  0  0
  4  9  2  0  0  0  0
  5  6  2  0  0  0  0
  5  9  1  0  0  0  0
  6 10  1  0  0  0  0
  1 11  1  0  0  0  0
  2 12  1  0  0  0  0
  3 13  1  0  0  0  0
  4 14  1  0  0  0  0
M  END
> <HYBRID receptor title>
5S18(A) > WOY(A-201)

> <HYBRID receptor filename>
5s18.oedu

> <HYBRID Chemgauss4 score>
-5.183908

> <HYBRID receptor title>
5S18(A) > WOY(A-201)

> <HYBRID receptor filename>
5s18.oedu

> <Dock Type>
Hybrid

$$$$
MOL0128_3
  -OEChem-06022418243D

 25 26  0     0  0  0  0  0  0999 V2000
   -2.7912   14.8856   -1.2002 C   0  0  0  0  0  0  0  0  0  0  0  0
   -3.7033   15.2055   -0.2295 C   0  0  0  0  0  0  0  0  0  0  0  0
   -3.2330   15.4301    1.0543 C   0  0  0  0  0  0  0  0  0  0  0  0
   -1.1190   15.0411    0.3504 C   0  0  0  0  0  0  0  0  0  0  0  0
   -5.1840   15.3235   -0.2792 C   0  0  0  0  0  0  0  0  0  0  0  0
   -5.4895   15.9140    1.1144 C   0  0  0  0  0  0  0  0  0  0  0  0
    0.8963   16.2539    1.2565 C   0  0  0  0  0  0  0  0  0  0  0  0
    1.1750   14.5279   -0.5597 C   0  0  0  0  0  0  0  0  0  0  0  0
    0.3367   14.9475    0.6625 C   0  0  0  0  0  0  0  0  0  0  0  0
   -1.4718   14.7994   -0.9347 N   0  0  0  0  0  0  0  0  0  0  0  0
   -1.9329   15.3543    1.3821 N   0  0  0  0  0  0  0  0  0  0  0  0
   -4.2946   15.7301    1.9208 N   0  0  0  0  0  0  0  0  0  0  0  0
   -3.0831   14.6838   -2.2235 H   0  0  0  0  0  0  0  0  0  0  0  0
   -5.5169   15.9934   -1.0769 H   0  0  0  0  0  0  0  0  0  0  0  0
   -5.6417   14.3363   -0.3961 H   0  0  0  0  0  0  0  0  0  0  0  0
   -5.7080   16.9851    1.0292 H   0  0  0  0  0  0  0  0  0  0  0  0
   -6.3575   15.4286    1.5714 H   0  0  0  0  0  0  0  0  0  0  0  0
    0.7747   17.0955    0.5658 H   0  0  0  0  0  0  0  0  0  0  0  0
    1.9636   16.1644    1.4864 H   0  0  0  0  0  0  0  0  0  0  0  0
    0.3732   16.5064    2.1856 H   0  0  0  0  0  0  0  0  0  0  0  0
    1.0600   15.2559   -1.3705 H   0  0  0  0  0  0  0  0  0  0  0  0
    0.8643   13.5493   -0.9413 H   0  0  0  0  0  0  0  0  0  0  0  0
    2.2411   14.4658   -0.3153 H   0  0  0  0  0  0  0  0  0  0  0  0
    0.5063   14.1679    1.4293 H   0  0  0  0  0  0  0  0  0  0  0  0
   -4.1837   15.9921    2.8879 H   0  0  0  0  0  0  0  0  0  0  0  0
  1  2  1  0  0  0  0
  1 10  2  0  0  0  0
  2  3  2  0  0  0  0
  2  5  1  0  0  0  0
  3 11  1  0  0  0  0
  3 12  1  0  0  0  0
  4  9  1  0  0  0  0
  4 10  1  0  0  0  0
  4 11  2  0  0  0  0
  5  6  1  0  0  0  0
  6 12  1  0  0  0  0
  7  9  1  0  0  0  0
  8  9  1  0  0  0  0
  1 13  1  0  0  0  0
  5 14  1  0  0  0  0
  5 15  1  0  0  0  0
  6 16  1  0  0  0  0
  6 17  1  0  0  0  0
  7 18  1  0  0  0  0
  7 19  1  0  0  0  0
  7 20  1  0  0  0  0
  8 21  1  0  0  0  0
  8 22  1  0  0  0  0
  8 23  1  0  0  0  0
  9 24  1  0  0  0  0
 12 25  1  0  0  0  0
M  END
> <HYBRID receptor title>
5S18(A) > WOY(A-201)

> <HYBRID receptor filename>
5s18.oedu

> <HYBRID Chemgauss4 score>
-5.158381

> <HYBRID receptor title>
5S18(A) > WOY(A-201)

> <HYBRID receptor filename>
5s18.oedu

> <Dock Type>
Hybrid

$$$$
MOL0039_1
  -OEChem-06022418243D

 17 18  0     0  0  0  0  0  0999 V2000
    0.3063   14.9185    1.0405 C   0  0  0  0  0  0  0  0  0  0  0  0
   -2.5369   14.6166   -1.1070 C   0  0  0  0  0  0  0  0  0  0  0  0
   -1.0469   14.9073    0.6018 C   0  0  0  0  0  0  0  0  0  0  0  0
   -3.5632   14.8856   -0.2405 C   0  0  0  0  0  0  0  0  0  0  0  0
   -3.2433   15.1591    1.0796 C   0  0  0  0  0  0  0  0  0  0  0  0
   -5.0355   14.9007   -0.4427 C   0  0  0  0  0  0  0  0  0  0  0  0
   -5.5214   15.4872    0.9005 C   0  0  0  0  0  0  0  0  0  0  0  0
    1.4102   14.9277    1.3983 N   0  0  0  0  0  0  0  0  0  0  0  0
   -1.2489   14.6249   -0.7073 N   0  0  0  0  0  0  0  0  0  0  0  0
   -1.9816   15.1774    1.5391 N   0  0  0  0  0  0  0  0  0  0  0  0
   -4.4059   15.3967    1.8276 N   0  0  0  0  0  0  0  0  0  0  0  0
   -2.7081   14.3814   -2.1504 H   0  0  0  0  0  0  0  0  0  0  0  0
   -5.3290   15.5358   -1.2833 H   0  0  0  0  0  0  0  0  0  0  0  0
   -5.4114   13.8827   -0.5853 H   0  0  0  0  0  0  0  0  0  0  0  0
   -5.8018   16.5395    0.7721 H   0  0  0  0  0  0  0  0  0  0  0  0
   -6.3977   14.9494    1.2768 H   0  0  0  0  0  0  0  0  0  0  0  0
   -4.4124   15.6788    2.7954 H   0  0  0  0  0  0  0  0  0  0  0  0
  1  3  1  0  0  0  0
  1  8  3  0  0  0  0
  2  4  1  0  0  0  0
  2  9  2  0  0  0  0
  3  9  1  0  0  0  0
  3 10  2  0  0  0  0
  4  5  2  0  0  0  0
  4  6  1  0  0  0  0
  5 10  1  0  0  0  0
  5 11  1  0  0  0  0
  6  7  1  0  0  0  0
  7 11  1  0  0  0  0
  2 12  1  0  0  0  0
  6 13  1  0  0  0  0
  6 14  1  0  0  0  0
  7 15  1  0  0  0  0
  7 16  1  0  0  0  0
 11 17  1  0  0  0  0
M  END
> <HYBRID receptor title>
5S18(A) > WOY(A-201)

> <HYBRID receptor filename>
5s18.oedu

> <HYBRID Chemgauss4 score>
-5.124783

> <HYBRID receptor title>
5S18(A) > WOY(A-201)

> <HYBRID receptor filename>
5s18.oedu

> <Dock Type>
Hybrid

$$$$
MOL0021_1
  -OEChem-06022418243D

 16 17  0     0  0  0  0  0  0999 V2000
   -2.7147   15.3739    1.3846 C   0  0  0  0  0  0  0  0  0  0  0  0
   -0.5955   14.6026    0.9682 C   0  0  0  0  0  0  0  0  0  0  0  0
   -2.9720   15.3580    0.0417 C   0  0  0  0  0  0  0  0  0  0  0  0
   -1.9548   14.9329   -0.7845 C   0  0  0  0  0  0  0  0  0  0  0  0
   -4.1782   15.6918   -0.7519 C   0  0  0  0  0  0  0  0  0  0  0  0
   -2.4326   14.9530   -2.2038 C   0  0  0  0  0  0  0  0  0  0  0  0
   -1.5161   14.9991    1.8831 N   0  0  0  0  0  0  0  0  0  0  0  0
   -0.7431   14.5402   -0.3722 N   0  0  0  0  0  0  0  0  0  0  0  0
   -3.7373   15.6520   -2.1659 N   0  0  0  0  0  0  0  0  0  0  0  0
   -3.4542   15.6846    2.1124 H   0  0  0  0  0  0  0  0  0  0  0  0
    0.3680   14.3001    1.3609 H   0  0  0  0  0  0  0  0  0  0  0  0
   -4.9609   14.9453   -0.5803 H   0  0  0  0  0  0  0  0  0  0  0  0
   -4.5583   16.6885   -0.5107 H   0  0  0  0  0  0  0  0  0  0  0  0
   -1.7338   15.4896   -2.8514 H   0  0  0  0  0  0  0  0  0  0  0  0
   -2.5604   13.9270   -2.5643 H   0  0  0  0  0  0  0  0  0  0  0  0
   -4.4218   15.1618   -2.7396 H   0  0  0  0  0  0  0  0  0  0  0  0
  1  3  1  0  0  0  0
  1  7  2  0  0  0  0
  2  7  1  0  0  0  0
  2  8  2  0  0  0  0
  3  4  2  0  0  0  0
  3  5  1  0  0  0  0
  4  6  1  0  0  0  0
  4  8  1  0  0  0  0
  5  9  1  0  0  0  0
  6  9  1  0  0  0  0
  1 10  1  0  0  0  0
  2 11  1  0  0  0  0
  5 12  1  0  0  0  0
  5 13  1  0  0  0  0
  6 14  1  0  0  0  0
  6 15  1  0  0  0  0
  9 16  1  0  0  0  0
M  END
> <HYBRID receptor title>
5S18(A) > WOY(A-201)

> <HYBRID receptor filename>
5s18.oedu

> <HYBRID Chemgauss4 score>
-5.106784

> <HYBRID receptor title>
5S18(A) > WOY(A-201)

> <HYBRID receptor filename>
5s18.oedu

> <Dock Type>
Hybrid

$$$$
MOL0160_4
  -OEChem-06022418243D

 26 28  0     0  0  0  0  0  0999 V2000
    1.0040   14.0634   -1.1982 C   0  0  0  0  0  0  0  0  0  0  0  0
   -0.3453   14.0388   -0.8458 C   0  0  0  0  0  0  0  0  0  0  0  0
    1.4076   14.7051   -2.3691 C   0  0  0  0  0  0  0  0  0  0  0  0
   -0.8877   15.2976   -2.8354 C   0  0  0  0  0  0  0  0  0  0  0  0
   -4.8708   14.6236   -1.9669 C   0  0  0  0  0  0  0  0  0  0  0  0
   -1.2912   14.6559   -1.6644 C   0  0  0  0  0  0  0  0  0  0  0  0
   -5.2578   14.5894   -0.6533 C   0  0  0  0  0  0  0  0  0  0  0  0
    0.4617   15.3221   -3.1877 C   0  0  0  0  0  0  0  0  0  0  0  0
   -4.2669   14.5693    0.3150 C   0  0  0  0  0  0  0  0  0  0  0  0
   -2.6845   14.6301   -1.3000 C   0  0  0  0  0  0  0  0  0  0  0  0
   -6.6064   14.5236   -0.0323 C   0  0  0  0  0  0  0  0  0  0  0  0
   -6.2653   14.7307    1.4593 C   0  0  0  0  0  0  0  0  0  0  0  0
   -3.5707   14.6492   -2.3241 N   0  0  0  0  0  0  0  0  0  0  0  0
   -2.9563   14.5882    0.0226 N   0  0  0  0  0  0  0  0  0  0  0  0
   -4.8339   14.5209    1.5971 N   0  0  0  0  0  0  0  0  0  0  0  0
    0.9607   16.1136   -4.6323 Cl  0  0  0  0  0  0  0  0  0  0  0  0
    1.7406   13.5829   -0.5608 H   0  0  0  0  0  0  0  0  0  0  0  0
   -0.6440   13.5347    0.0702 H   0  0  0  0  0  0  0  0  0  0  0  0
    2.4625   14.7161   -2.6309 H   0  0  0  0  0  0  0  0  0  0  0  0
   -1.6249   15.7793   -3.4749 H   0  0  0  0  0  0  0  0  0  0  0  0
   -5.5863   14.6287   -2.7801 H   0  0  0  0  0  0  0  0  0  0  0  0
   -7.2686   15.3113   -0.4024 H   0  0  0  0  0  0  0  0  0  0  0  0
   -7.0557   13.5395   -0.1998 H   0  0  0  0  0  0  0  0  0  0  0  0
   -6.5126   15.7551    1.7631 H   0  0  0  0  0  0  0  0  0  0  0  0
   -6.8325   14.0449    2.0969 H   0  0  0  0  0  0  0  0  0  0  0  0
   -4.3063   14.5644    2.4549 H   0  0  0  0  0  0  0  0  0  0  0  0
  1  2  1  0  0  0  0
  1  3  2  0  0  0  0
  2  6  2  0  0  0  0
  3  8  1  0  0  0  0
  4  6  1  0  0  0  0
  4  8  2  0  0  0  0
  5  7  1  0  0  0  0
  5 13  2  0  0  0  0
  6 10  1  0  0  0  0
  7  9  2  0  0  0  0
  7 11  1  0  0  0  0
  8 16  1  0  0  0  0
  9 14  1  0  0  0  0
  9 15  1  0  0  0  0
 10 13  1  0  0  0  0
 10 14  2  0  0  0  0
 11 12  1  0  0  0  0
 12 15  1  0  0  0  0
  1 17  1  0  0  0  0
  2 18  1  0  0  0  0
  3 19  1  0  0  0  0
  4 20  1  0  0  0  0
  5 21  1  0  0  0  0
 11 22  1  0  0  0  0
 11 23  1  0  0  0  0
 12 24  1  0  0  0  0
 12 25  1  0  0  0  0
 15 26  1  0  0  0  0
M  END
> <HYBRID receptor title>
5S18(A) > WOY(A-201)

> <HYBRID receptor filename>
5s18.oedu

> <HYBRID Chemgauss4 score>
-5.089073

> <HYBRID receptor title>
5S18(A) > WOY(A-201)

> <HYBRID receptor filename>
5s18.oedu

> <Dock Type>
Hybrid

$$$$
MOL0150_4
  -OEChem-06022418243D

 25 27  0     0  0  0  0  0  0999 V2000
   -4.5692   16.1880    0.2817 C   0  0  0  0  0  0  0  0  0  0  0  0
   -4.1261   15.4933   -0.8383 C   0  0  0  0  0  0  0  0  0  0  0  0
   -3.7855   16.1449    1.4235 C   0  0  0  0  0  0  0  0  0  0  0  0
   -2.2195   14.8065    0.4064 C   0  0  0  0  0  0  0  0  0  0  0  0
   -2.9173   12.8842   -3.8304 C   0  0  0  0  0  0  0  0  0  0  0  0
   -2.9298   14.7867   -0.7830 C   0  0  0  0  0  0  0  0  0  0  0  0
   -1.5752   12.7036   -4.0367 C   0  0  0  0  0  0  0  0  0  0  0  0
   -0.6972   13.2542   -3.1170 C   0  0  0  0  0  0  0  0  0  0  0  0
   -2.4447   14.0570   -1.9263 C   0  0  0  0  0  0  0  0  0  0  0  0
   -0.8364   12.0316   -5.1373 C   0  0  0  0  0  0  0  0  0  0  0  0
    0.6058   12.0402   -4.5858 C   0  0  0  0  0  0  0  0  0  0  0  0
   -2.6179   15.4697    1.5151 N   0  0  0  0  0  0  0  0  0  0  0  0
   -3.3872   13.5638   -2.7645 N   0  0  0  0  0  0  0  0  0  0  0  0
   -1.1032   13.9451   -2.0393 N   0  0  0  0  0  0  0  0  0  0  0  0
    0.6300   12.9885   -3.4850 N   0  0  0  0  0  0  0  0  0  0  0  0
   -5.4979   16.7464    0.2620 H   0  0  0  0  0  0  0  0  0  0  0  0
   -4.7231   15.5113   -1.7468 H   0  0  0  0  0  0  0  0  0  0  0  0
   -4.0874   16.6699    2.3242 H   0  0  0  0  0  0  0  0  0  0  0  0
   -1.2777   14.2761    0.5144 H   0  0  0  0  0  0  0  0  0  0  0  0
   -3.6641   12.4946   -4.5113 H   0  0  0  0  0  0  0  0  0  0  0  0
   -1.1913   11.0113   -5.3080 H   0  0  0  0  0  0  0  0  0  0  0  0
   -0.9085   12.6182   -6.0587 H   0  0  0  0  0  0  0  0  0  0  0  0
    0.8717   11.0440   -4.2123 H   0  0  0  0  0  0  0  0  0  0  0  0
    1.3280   12.3116   -5.3625 H   0  0  0  0  0  0  0  0  0  0  0  0
    1.4349   13.2359   -2.9307 H   0  0  0  0  0  0  0  0  0  0  0  0
  1  2  2  0  0  0  0
  1  3  1  0  0  0  0
  2  6  1  0  0  0  0
  3 12  2  0  0  0  0
  4  6  2  0  0  0  0
  4 12  1  0  0  0  0
  5  7  1  0  0  0  0
  5 13  2  0  0  0  0
  6  9  1  0  0  0  0
  7  8  2  0  0  0  0
  7 10  1  0  0  0  0
  8 14  1  0  0  0  0
  8 15  1  0  0  0  0
  9 13  1  0  0  0  0
  9 14  2  0  0  0  0
 10 11  1  0  0  0  0
 11 15  1  0  0  0  0
  1 16  1  0  0  0  0
  2 17  1  0  0  0  0
  3 18  1  0  0  0  0
  4 19  1  0  0  0  0
  5 20  1  0  0  0  0
 10 21  1  0  0  0  0
 10 22  1  0  0  0  0
 11 23  1  0  0  0  0
 11 24  1  0  0  0  0
 15 25  1  0  0  0  0
M  END
> <HYBRID receptor title>
5S18(A) > WOY(A-201)

> <HYBRID receptor filename>
5s18.oedu

> <HYBRID Chemgauss4 score>
-5.032732

> <HYBRID receptor title>
5S18(A) > WOY(A-201)

> <HYBRID receptor filename>
5s18.oedu

> <Dock Type>
Hybrid

$$$$
MOL0054_3
  -OEChem-06022418243D

 20 21  0     0  0  0  0  0  0999 V2000
   -3.2736   14.9470   -0.8717 C   0  0  0  0  0  0  0  0  0  0  0  0
   -4.1015   15.4264    0.1086 C   0  0  0  0  0  0  0  0  0  0  0  0
   -3.5650   15.6281    1.3701 C   0  0  0  0  0  0  0  0  0  0  0  0
   -1.5489   14.9206    0.6281 C   0  0  0  0  0  0  0  0  0  0  0  0
   -5.5520   15.7498    0.0922 C   0  0  0  0  0  0  0  0  0  0  0  0
   -5.7288   16.4267    1.4687 C   0  0  0  0  0  0  0  0  0  0  0  0
    0.8632   14.9143   -0.6737 C   0  0  0  0  0  0  0  0  0  0  0  0
   -1.9716   14.6854   -0.6370 N   0  0  0  0  0  0  0  0  0  0  0  0
   -2.2787   15.3818    1.6671 N   0  0  0  0  0  0  0  0  0  0  0  0
   -4.5469   16.1053    2.2509 N   0  0  0  0  0  0  0  0  0  0  0  0
    0.1698   14.5796    0.9599 S   0  0  0  0  0  0  0  0  0  0  0  0
   -3.6223   14.7524   -1.8786 H   0  0  0  0  0  0  0  0  0  0  0  0
   -5.8124   16.4311   -0.7228 H   0  0  0  0  0  0  0  0  0  0  0  0
   -6.1464   14.8329    0.0258 H   0  0  0  0  0  0  0  0  0  0  0  0
   -5.7984   17.5143    1.3470 H   0  0  0  0  0  0  0  0  0  0  0  0
   -6.6420   16.0851    1.9665 H   0  0  0  0  0  0  0  0  0  0  0  0
    1.9437   14.7518   -0.6593 H   0  0  0  0  0  0  0  0  0  0  0  0
    0.6624   15.9505   -0.9569 H   0  0  0  0  0  0  0  0  0  0  0  0
    0.4113   14.2479   -1.4124 H   0  0  0  0  0  0  0  0  0  0  0  0
   -4.3704   16.3837    3.2034 H   0  0  0  0  0  0  0  0  0  0  0  0
  1  2  1  0  0  0  0
  1  8  2  0  0  0  0
  2  3  2  0  0  0  0
  2  5  1  0  0  0  0
  3  9  1  0  0  0  0
  3 10  1  0  0  0  0
  4  8  1  0  0  0  0
  4  9  2  0  0  0  0
  4 11  1  0  0  0  0
  5  6  1  0  0  0  0
  6 10  1  0  0  0  0
  7 11  1  0  0  0  0
  1 12  1  0  0  0  0
  5 13  1  0  0  0  0
  5 14  1  0  0  0  0
  6 15  1  0  0  0  0
  6 16  1  0  0  0  0
  7 17  1  0  0  0  0
  7 18  1  0  0  0  0
  7 19  1  0  0  0  0
 10 20  1  0  0  0  0
M  END
> <HYBRID receptor title>
5S18(A) > WOY(A-201)

> <HYBRID receptor filename>
5s18.oedu

> <HYBRID Chemgauss4 score>
-5.019525

> <HYBRID receptor title>
5S18(A) > WOY(A-201)

> <HYBRID receptor filename>
5s18.oedu

> <Dock Type>
Hybrid

$$$$
MOL0204_3
  -OEChem-06022418243D

 24 26  0     0  0  0  0  0  0999 V2000
   -1.2187   15.2316    0.7353 C   0  0  0  0  0  0  0  0  0  0  0  0
   -0.4822   14.7503   -0.3461 C   0  0  0  0  0  0  0  0  0  0  0  0
   -2.5879   15.3229    0.5991 C   0  0  0  0  0  0  0  0  0  0  0  0
   -1.1629   14.3648   -1.5013 C   0  0  0  0  0  0  0  0  0  0  0  0
   -3.1682   14.8955   -0.5860 C   0  0  0  0  0  0  0  0  0  0  0  0
   -4.6613   15.0001   -0.4726 C   0  0  0  0  0  0  0  0  0  0  0  0
   -0.8365   14.1561   -4.0554 C   0  0  0  0  0  0  0  0  0  0  0  0
   -0.9582   12.7639   -3.5195 C   0  0  0  0  0  0  0  0  0  0  0  0
   -4.8130   15.7692    0.8585 C   0  0  0  0  0  0  0  0  0  0  0  0
   -0.3712   13.8493   -2.6568 C   0  0  0  0  0  0  0  0  0  0  0  0
   -2.5075   14.4175   -1.6525 N   0  0  0  0  0  0  0  0  0  0  0  0
   -3.5274   15.7071    1.5438 N   0  0  0  0  0  0  0  0  0  0  0  0
   -0.7212   15.5252    1.6534 H   0  0  0  0  0  0  0  0  0  0  0  0
    0.5986   14.6752   -0.2774 H   0  0  0  0  0  0  0  0  0  0  0  0
   -5.0926   15.5515   -1.3123 H   0  0  0  0  0  0  0  0  0  0  0  0
   -5.1013   14.0004   -0.4051 H   0  0  0  0  0  0  0  0  0  0  0  0
   -0.0748   14.3439   -4.8031 H   0  0  0  0  0  0  0  0  0  0  0  0
   -1.7492   14.7218   -4.1983 H   0  0  0  0  0  0  0  0  0  0  0  0
   -1.9531   12.3945   -3.3003 H   0  0  0  0  0  0  0  0  0  0  0  0
   -0.2800   12.0126   -3.9064 H   0  0  0  0  0  0  0  0  0  0  0  0
   -5.0658   16.8177    0.6585 H   0  0  0  0  0  0  0  0  0  0  0  0
   -5.6117   15.3442    1.4750 H   0  0  0  0  0  0  0  0  0  0  0  0
    0.6988   13.8151   -2.5006 H   0  0  0  0  0  0  0  0  0  0  0  0
   -3.2934   16.2807    2.3414 H   0  0  0  0  0  0  0  0  0  0  0  0
  1  2  1  0  0  0  0
  1  3  2  0  0  0  0
  2  4  2  0  0  0  0
  3  5  1  0  0  0  0
  3 12  1  0  0  0  0
  4 10  1  0  0  0  0
  4 11  1  0  0  0  0
  5  6  1  0  0  0  0
  5 11  2  0  0  0  0
  6  9  1  0  0  0  0
  7  8  1  0  0  0  0
  7 10  1  0  0  0  0
  8 10  1  0  0  0  0
  9 12  1  0  0  0  0
  1 13  1  0  0  0  0
  2 14  1  0  0  0  0
  6 15  1  0  0  0  0
  6 16  1  0  0  0  0
  7 17  1  0  0  0  0
  7 18  1  0  0  0  0
  8 19  1  0  0  0  0
  8 20  1  0  0  0  0
  9 21  1  0  0  0  0
  9 22  1  0  0  0  0
 10 23  1  0  0  0  0
 12 24  1  0  0  0  0
M  END
> <HYBRID receptor title>
5S18(A) > WOY(A-201)

> <HYBRID receptor filename>
5s18.oedu

> <HYBRID Chemgauss4 score>
-5.009430

> <HYBRID receptor title>
5S18(A) > WOY(A-201)

> <HYBRID receptor filename>
5s18.oedu

> <Dock Type>
Hybrid

$$$$
MOL0096_1
  -OEChem-06022418243D

 18 19  0     0  0  0  0  0  0999 V2000
    1.4065   14.8492    1.5599 C   0  0  0  0  0  0  0  0  0  0  0  0
    0.2784   14.8613    1.1489 C   0  0  0  0  0  0  0  0  0  0  0  0
   -2.4871   14.6530   -1.1084 C   0  0  0  0  0  0  0  0  0  0  0  0
   -1.0581   14.8754    0.6617 C   0  0  0  0  0  0  0  0  0  0  0  0
   -3.5422   14.9017   -0.2710 C   0  0  0  0  0  0  0  0  0  0  0  0
   -3.2686   15.1290    1.0682 C   0  0  0  0  0  0  0  0  0  0  0  0
   -5.0061   14.9352   -0.5254 C   0  0  0  0  0  0  0  0  0  0  0  0
   -5.5364   15.4811    0.8182 C   0  0  0  0  0  0  0  0  0  0  0  0
   -1.2144   14.6379   -0.6625 N   0  0  0  0  0  0  0  0  0  0  0  0
   -2.0242   15.1220    1.5731 N   0  0  0  0  0  0  0  0  0  0  0  0
   -4.4559   15.3512    1.7813 N   0  0  0  0  0  0  0  0  0  0  0  0
    2.4071   14.8379    1.9245 H   0  0  0  0  0  0  0  0  0  0  0  0
   -2.6220   14.4537   -2.1644 H   0  0  0  0  0  0  0  0  0  0  0  0
   -5.2646   15.5999   -1.3546 H   0  0  0  0  0  0  0  0  0  0  0  0
   -5.3835   13.9255   -0.7152 H   0  0  0  0  0  0  0  0  0  0  0  0
   -5.8048   16.5392    0.7146 H   0  0  0  0  0  0  0  0  0  0  0  0
   -6.4294   14.9383    1.1446 H   0  0  0  0  0  0  0  0  0  0  0  0
   -4.4956   15.6014    2.7570 H   0  0  0  0  0  0  0  0  0  0  0  0
  1  2  3  0  0  0  0
  2  4  1  0  0  0  0
  3  5  1  0  0  0  0
  3  9  2  0  0  0  0
  4  9  1  0  0  0  0
  4 10  2  0  0  0  0
  5  6  2  0  0  0  0
  5  7  1  0  0  0  0
  6 10  1  0  0  0  0
  6 11  1  0  0  0  0
  7  8  1  0  0  0  0
  8 11  1  0  0  0  0
  1 12  1  0  0  0  0
  3 13  1  0  0  0  0
  7 14  1  0  0  0  0
  7 15  1  0  0  0  0
  8 16  1  0  0  0  0
  8 17  1  0  0  0  0
 11 18  1  0  0  0  0
M  END
> <HYBRID receptor title>
5S18(A) > WOY(A-201)

> <HYBRID receptor filename>
5s18.oedu

> <HYBRID Chemgauss4 score>
-5.003987

> <HYBRID receptor title>
5S18(A) > WOY(A-201)

> <HYBRID receptor filename>
5s18.oedu

> <Dock Type>
Hybrid

$$$$
MOL0033_1
  -OEChem-06022418243D

 19 20  0     0  0  0  0  0  0999 V2000
   -2.5536   14.9588    1.2861 C   0  0  0  0  0  0  0  0  0  0  0  0
   -2.6499   14.8695   -0.0920 C   0  0  0  0  0  0  0  0  0  0  0  0
   -1.4437   14.7537   -0.7751 C   0  0  0  0  0  0  0  0  0  0  0  0
   -0.2861   14.8604    1.1885 C   0  0  0  0  0  0  0  0  0  0  0  0
   -3.9702   14.8238   -0.8025 C   0  0  0  0  0  0  0  0  0  0  0  0
   -1.4421   14.6787   -2.2792 C   0  0  0  0  0  0  0  0  0  0  0  0
   -2.8087   14.2803   -2.8425 C   0  0  0  0  0  0  0  0  0  0  0  0
   -1.3847   14.9613    1.9587 N   0  0  0  0  0  0  0  0  0  0  0  0
   -0.2429   14.7575   -0.1535 N   0  0  0  0  0  0  0  0  0  0  0  0
   -3.8756   15.0889   -2.2451 N   0  0  0  0  0  0  0  0  0  0  0  0
    1.3902   14.8612    2.0950 Br  0  0  0  0  0  0  0  0  0  0  0  0
   -3.4395   15.0351    1.9086 H   0  0  0  0  0  0  0  0  0  0  0  0
   -4.4283   13.8353   -0.6684 H   0  0  0  0  0  0  0  0  0  0  0  0
   -4.6478   15.5571   -0.3449 H   0  0  0  0  0  0  0  0  0  0  0  0
   -1.1452   15.6473   -2.6955 H   0  0  0  0  0  0  0  0  0  0  0  0
   -0.6888   13.9409   -2.5800 H   0  0  0  0  0  0  0  0  0  0  0  0
   -2.8258   14.3889   -3.9369 H   0  0  0  0  0  0  0  0  0  0  0  0
   -2.9967   13.2191   -2.6331 H   0  0  0  0  0  0  0  0  0  0  0  0
   -4.7619   14.8522   -2.6879 H   0  0  0  0  0  0  0  0  0  0  0  0
  1  2  1  0  0  0  0
  1  8  2  0  0  0  0
  2  3  2  0  0  0  0
  2  5  1  0  0  0  0
  3  6  1  0  0  0  0
  3  9  1  0  0  0  0
  4  8  1  0  0  0  0
  4  9  2  0  0  0  0
  4 11  1  0  0  0  0
  5 10  1  0  0  0  0
  6  7  1  0  0  0  0
  7 10  1  0  0  0  0
  1 12  1  0  0  0  0
  5 13  1  0  0  0  0
  5 14  1  0  0  0  0
  6 15  1  0  0  0  0
  6 16  1  0  0  0  0
  7 17  1  0  0  0  0
  7 18  1  0  0  0  0
 10 19  1  0  0  0  0
M  END
> <HYBRID receptor title>
5S18(A) > WOY(A-201)

> <HYBRID receptor filename>
5s18.oedu

> <HYBRID Chemgauss4 score>
-4.999246

> <HYBRID receptor title>
5S18(A) > WOY(A-201)

> <HYBRID receptor filename>
5s18.oedu

> <Dock Type>
Hybrid

$$$$
MOL0131_3
  -OEChem-06022418243D

 20 21  0     1  0  0  0  0  0999 V2000
   -4.2835   15.4798    0.1090 C   0  0  0  0  0  0  0  0  0  0  0  0
   -3.5305   15.0469   -0.9768 C   0  0  0  0  0  0  0  0  0  0  0  0
   -3.6559   15.5630    1.3415 C   0  0  0  0  0  0  0  0  0  0  0  0
   -1.6580   14.8328    0.4737 C   0  0  0  0  0  0  0  0  0  0  0  0
   -2.1919   14.7152   -0.7995 C   0  0  0  0  0  0  0  0  0  0  0  0
   -1.3742   14.9371   -3.3799 C   0  0  0  0  0  0  0  0  0  0  0  0
    0.1566   14.7932   -3.3709 C   0  0  0  0  0  0  0  0  0  0  0  0
   -1.3088   14.2202   -2.0108 C   0  0  1  0  0  0  0  0  0  0  0  0
   -2.3580   15.2496    1.5526 N   0  0  0  0  0  0  0  0  0  0  0  0
    0.0893   14.7189   -1.8946 N   0  0  0  0  0  0  0  0  0  0  0  0
   -5.3285   15.7438   -0.0058 H   0  0  0  0  0  0  0  0  0  0  0  0
   -3.9928   14.9707   -1.9570 H   0  0  0  0  0  0  0  0  0  0  0  0
   -4.1993   15.8951    2.2199 H   0  0  0  0  0  0  0  0  0  0  0  0
   -0.6191   14.5881    0.6714 H   0  0  0  0  0  0  0  0  0  0  0  0
   -1.7271   15.9751   -3.3498 H   0  0  0  0  0  0  0  0  0  0  0  0
   -1.9019   14.3996   -4.1721 H   0  0  0  0  0  0  0  0  0  0  0  0
    0.5240   13.8741   -3.8423 H   0  0  0  0  0  0  0  0  0  0  0  0
    0.7159   15.6462   -3.7637 H   0  0  0  0  0  0  0  0  0  0  0  0
   -1.3599   13.1220   -2.1065 H   0  0  0  0  0  0  0  0  0  0  0  0
    0.7405   14.0589   -1.4696 H   0  0  0  0  0  0  0  0  0  0  0  0
  1  2  2  0  0  0  0
  1  3  1  0  0  0  0
  2  5  1  0  0  0  0
  3  9  2  0  0  0  0
  4  5  2  0  0  0  0
  4  9  1  0  0  0  0
  5  8  1  0  0  0  0
  6  7  1  0  0  0  0
  6  8  1  0  0  0  0
  7 10  1  0  0  0  0
  8 10  1  0  0  0  0
  1 11  1  0  0  0  0
  2 12  1  0  0  0  0
  3 13  1  0  0  0  0
  4 14  1  0  0  0  0
  6 15  1  0  0  0  0
  6 16  1  0  0  0  0
  7 17  1  0  0  0  0
  7 18  1  0  0  0  0
  8 19  1  0  0  0  0
 10 20  1  0  0  0  0
M  END
> <HYBRID receptor title>
5S18(A) > WOY(A-201)

> <HYBRID receptor filename>
5s18.oedu

> <HYBRID Chemgauss4 score>
-4.969926

> <HYBRID receptor title>
5S18(A) > WOY(A-201)

> <HYBRID receptor filename>
5s18.oedu

> <Dock Type>
Hybrid

$$$$
MOL0122_2
  -OEChem-06022418243D

 26 28  0     0  0  0  0  0  0999 V2000
   -1.3109   14.7927   -3.1029 C   0  0  0  0  0  0  0  0  0  0  0  0
   -0.4606   14.7204   -0.8427 C   0  0  0  0  0  0  0  0  0  0  0  0
   -0.0076   14.8897   -3.5902 C   0  0  0  0  0  0  0  0  0  0  0  0
    0.8428   14.8175   -1.3299 C   0  0  0  0  0  0  0  0  0  0  0  0
   -5.0347   13.9063   -1.5483 C   0  0  0  0  0  0  0  0  0  0  0  0
   -1.5375   14.7081   -1.7291 C   0  0  0  0  0  0  0  0  0  0  0  0
   -5.3715   14.4181   -0.3231 C   0  0  0  0  0  0  0  0  0  0  0  0
    1.0693   14.9021   -2.7037 C   0  0  0  0  0  0  0  0  0  0  0  0
   -4.3744   15.0255    0.4230 C   0  0  0  0  0  0  0  0  0  0  0  0
   -2.8835   14.6084   -1.2260 C   0  0  0  0  0  0  0  0  0  0  0  0
   -6.6587   14.4107    0.4198 C   0  0  0  0  0  0  0  0  0  0  0  0
   -6.3311   15.3434    1.6060 C   0  0  0  0  0  0  0  0  0  0  0  0
   -3.7795   13.9928   -2.0338 N   0  0  0  0  0  0  0  0  0  0  0  0
   -3.1058   15.1380   -0.0033 N   0  0  0  0  0  0  0  0  0  0  0  0
   -4.8847   15.4784    1.6486 N   0  0  0  0  0  0  0  0  0  0  0  0
    2.6771   15.0234   -3.3056 Cl  0  0  0  0  0  0  0  0  0  0  0  0
   -2.1400   14.7845   -3.8065 H   0  0  0  0  0  0  0  0  0  0  0  0
   -0.6210   14.6561    0.2310 H   0  0  0  0  0  0  0  0  0  0  0  0
    0.1546   14.9569   -4.6631 H   0  0  0  0  0  0  0  0  0  0  0  0
    1.6724   14.8272   -0.6274 H   0  0  0  0  0  0  0  0  0  0  0  0
   -5.7556   13.4067   -2.1838 H   0  0  0  0  0  0  0  0  0  0  0  0
   -7.4827   14.8054   -0.1812 H   0  0  0  0  0  0  0  0  0  0  0  0
   -6.8923   13.3995    0.7677 H   0  0  0  0  0  0  0  0  0  0  0  0
   -6.7829   16.3296    1.4451 H   0  0  0  0  0  0  0  0  0  0  0  0
   -6.7225   14.9439    2.5471 H   0  0  0  0  0  0  0  0  0  0  0  0
   -4.3565   16.0078    2.3245 H   0  0  0  0  0  0  0  0  0  0  0  0
  1  3  2  0  0  0  0
  1  6  1  0  0  0  0
  2  4  1  0  0  0  0
  2  6  2  0  0  0  0
  3  8  1  0  0  0  0
  4  8  2  0  0  0  0
  5  7  1  0  0  0  0
  5 13  2  0  0  0  0
  6 10  1  0  0  0  0
  7  9  2  0  0  0  0
  7 11  1  0  0  0  0
  8 16  1  0  0  0  0
  9 14  1  0  0  0  0
  9 15  1  0  0  0  0
 10 13  1  0  0  0  0
 10 14  2  0  0  0  0
 11 12  1  0  0  0  0
 12 15  1  0  0  0  0
  1 17  1  0  0  0  0
  2 18  1  0  0  0  0
  3 19  1  0  0  0  0
  4 20  1  0  0  0  0
  5 21  1  0  0  0  0
 11 22  1  0  0  0  0
 11 23  1  0  0  0  0
 12 24  1  0  0  0  0
 12 25  1  0  0  0  0
 15 26  1  0  0  0  0
M  END
> <HYBRID receptor title>
5S18(A) > WOY(A-201)

> <HYBRID receptor filename>
5s18.oedu

> <HYBRID Chemgauss4 score>
-4.967911

> <HYBRID receptor title>
5S18(A) > WOY(A-201)

> <HYBRID receptor filename>
5s18.oedu

> <Dock Type>
Hybrid

$$$$
MOL0173_1
  -OEChem-06022418243D

 28 30  0     0  0  0  0  0  0999 V2000
   -3.6325   14.9579    0.8143 C   0  0  0  0  0  0  0  0  0  0  0  0
   -4.7639   14.9873    1.2167 C   0  0  0  0  0  0  0  0  0  0  0  0
   -0.0567   14.9746    0.8111 C   0  0  0  0  0  0  0  0  0  0  0  0
   -2.2924   14.9208    0.3384 C   0  0  0  0  0  0  0  0  0  0  0  0
    0.2156   14.8589   -0.5264 C   0  0  0  0  0  0  0  0  0  0  0  0
   -0.8550   14.7686   -1.4013 C   0  0  0  0  0  0  0  0  0  0  0  0
    1.5062   14.7639   -1.2573 C   0  0  0  0  0  0  0  0  0  0  0  0
   -8.1326   13.3637    2.1182 C   0  0  0  0  0  0  0  0  0  0  0  0
   -7.3380   12.8110    0.9680 C   0  0  0  0  0  0  0  0  0  0  0  0
    1.0345   14.8719   -2.7236 C   0  0  0  0  0  0  0  0  0  0  0  0
   -6.6553   13.6294    2.0286 C   0  0  0  0  0  0  0  0  0  0  0  0
   -6.1465   15.0247    1.7084 C   0  0  0  0  0  0  0  0  0  0  0  0
   -1.3212   15.0129    1.2781 N   0  0  0  0  0  0  0  0  0  0  0  0
   -2.1355   14.7959   -0.9975 N   0  0  0  0  0  0  0  0  0  0  0  0
   -0.4005   14.6422   -2.7223 N   0  0  0  0  0  0  0  0  0  0  0  0
    0.7263   15.0371    1.5569 H   0  0  0  0  0  0  0  0  0  0  0  0
    2.1872   15.5793   -0.9974 H   0  0  0  0  0  0  0  0  0  0  0  0
    1.9814   13.7962   -1.0680 H   0  0  0  0  0  0  0  0  0  0  0  0
   -8.8192   14.1753    1.9120 H   0  0  0  0  0  0  0  0  0  0  0  0
   -8.4743   12.6682    2.8750 H   0  0  0  0  0  0  0  0  0  0  0  0
   -7.1466   11.7450    0.9534 H   0  0  0  0  0  0  0  0  0  0  0  0
   -7.4927   13.2524   -0.0088 H   0  0  0  0  0  0  0  0  0  0  0  0
    1.2408   15.8763   -3.1121 H   0  0  0  0  0  0  0  0  0  0  0  0
    1.5535   14.1509   -3.3636 H   0  0  0  0  0  0  0  0  0  0  0  0
   -6.0083   13.1105    2.7255 H   0  0  0  0  0  0  0  0  0  0  0  0
   -6.2036   15.6479    2.6077 H   0  0  0  0  0  0  0  0  0  0  0  0
   -6.7957   15.4846    0.9551 H   0  0  0  0  0  0  0  0  0  0  0  0
   -1.0010   14.6260   -3.5318 H   0  0  0  0  0  0  0  0  0  0  0  0
  1  2  3  0  0  0  0
  1  4  1  0  0  0  0
  2 12  1  0  0  0  0
  3  5  1  0  0  0  0
  3 13  2  0  0  0  0
  4 13  1  0  0  0  0
  4 14  2  0  0  0  0
  5  6  2  0  0  0  0
  5  7  1  0  0  0  0
  6 14  1  0  0  0  0
  6 15  1  0  0  0  0
  7 10  1  0  0  0  0
  8  9  1  0  0  0  0
  8 11  1  0  0  0  0
  9 11  1  0  0  0  0
 10 15  1  0  0  0  0
 11 12  1  0  0  0  0
  3 16  1  0  0  0  0
  7 17  1  0  0  0  0
  7 18  1  0  0  0  0
  8 19  1  0  0  0  0
  8 20  1  0  0  0  0
  9 21  1  0  0  0  0
  9 22  1  0  0  0  0
 10 23  1  0  0  0  0
 10 24  1  0  0  0  0
 11 25  1  0  0  0  0
 12 26  1  0  0  0  0
 12 27  1  0  0  0  0
 15 28  1  0  0  0  0
M  END
> <HYBRID receptor title>
5S18(A) > WOY(A-201)

> <HYBRID receptor filename>
5s18.oedu

> <HYBRID Chemgauss4 score>
-4.913009

> <HYBRID receptor title>
5S18(A) > WOY(A-201)

> <HYBRID receptor filename>
5s18.oedu

> <Dock Type>
Hybrid

$$$$
MOL0011_2
  -OEChem-06022418243D

 26 28  0     0  0  0  0  0  0999 V2000
    1.8502   14.3870   -3.2754 C   0  0  0  0  0  0  0  0  0  0  0  0
    0.8476   14.9210   -4.0849 C   0  0  0  0  0  0  0  0  0  0  0  0
    1.5508   13.9690   -1.9787 C   0  0  0  0  0  0  0  0  0  0  0  0
   -0.4542   15.0371   -3.5978 C   0  0  0  0  0  0  0  0  0  0  0  0
    0.2490   14.0851   -1.4916 C   0  0  0  0  0  0  0  0  0  0  0  0
   -4.3426   14.7601   -2.2303 C   0  0  0  0  0  0  0  0  0  0  0  0
   -0.7536   14.6191   -2.3011 C   0  0  0  0  0  0  0  0  0  0  0  0
   -4.5839   14.9628   -0.8972 C   0  0  0  0  0  0  0  0  0  0  0  0
   -3.4945   15.0382   -0.0445 C   0  0  0  0  0  0  0  0  0  0  0  0
   -2.0982   14.7390   -1.7985 C   0  0  0  0  0  0  0  0  0  0  0  0
   -5.8577   15.0819   -0.1408 C   0  0  0  0  0  0  0  0  0  0  0  0
   -5.3458   15.5060    1.2529 C   0  0  0  0  0  0  0  0  0  0  0  0
   -3.0898   14.6471   -2.7164 N   0  0  0  0  0  0  0  0  0  0  0  0
   -2.2244   14.9284   -0.4669 N   0  0  0  0  0  0  0  0  0  0  0  0
   -3.9186   15.2329    1.2783 N   0  0  0  0  0  0  0  0  0  0  0  0
    2.8634   14.2952   -3.6555 H   0  0  0  0  0  0  0  0  0  0  0  0
    1.0802   15.2450   -5.0951 H   0  0  0  0  0  0  0  0  0  0  0  0
    2.3306   13.5518   -1.3483 H   0  0  0  0  0  0  0  0  0  0  0  0
   -1.2248   15.4553   -4.2413 H   0  0  0  0  0  0  0  0  0  0  0  0
    0.0305   13.7544   -0.4789 H   0  0  0  0  0  0  0  0  0  0  0  0
   -5.1422   14.6780   -2.9563 H   0  0  0  0  0  0  0  0  0  0  0  0
   -6.5209   15.8390   -0.5686 H   0  0  0  0  0  0  0  0  0  0  0  0
   -6.3659   14.1135   -0.0950 H   0  0  0  0  0  0  0  0  0  0  0  0
   -5.5124   16.5793    1.4044 H   0  0  0  0  0  0  0  0  0  0  0  0
   -5.8692   14.9688    2.0503 H   0  0  0  0  0  0  0  0  0  0  0  0
   -3.2985   15.3818    2.0589 H   0  0  0  0  0  0  0  0  0  0  0  0
  1  2  1  0  0  0  0
  1  3  2  0  0  0  0
  2  4  2  0  0  0  0
  3  5  1  0  0  0  0
  4  7  1  0  0  0  0
  5  7  2  0  0  0  0
  6  8  1  0  0  0  0
  6 13  2  0  0  0  0
  7 10  1  0  0  0  0
  8  9  2  0  0  0  0
  8 11  1  0  0  0  0
  9 14  1  0  0  0  0
  9 15  1  0  0  0  0
 10 13  1  0  0  0  0
 10 14  2  0  0  0  0
 11 12  1  0  0  0  0
 12 15  1  0  0  0  0
  1 16  1  0  0  0  0
  2 17  1  0  0  0  0
  3 18  1  0  0  0  0
  4 19  1  0  0  0  0
  5 20  1  0  0  0  0
  6 21  1  0  0  0  0
 11 22  1  0  0  0  0
 11 23  1  0  0  0  0
 12 24  1  0  0  0  0
 12 25  1  0  0  0  0
 15 26  1  0  0  0  0
M  END
> <HYBRID receptor title>
5S18(A) > WOY(A-201)

> <HYBRID receptor filename>
5s18.oedu

> <HYBRID Chemgauss4 score>
-4.823985

> <HYBRID receptor title>
5S18(A) > WOY(A-201)

> <HYBRID receptor filename>
5s18.oedu

> <Dock Type>
Hybrid

$$$$
MOL0171_1
  -OEChem-06022418243D

 19 20  0     0  0  0  0  0  0999 V2000
   -4.3950   14.7319    0.4145 C   0  0  0  0  0  0  0  0  0  0  0  0
   -3.7405   14.7661    1.6288 C   0  0  0  0  0  0  0  0  0  0  0  0
   -3.6306   14.7931   -0.7437 C   0  0  0  0  0  0  0  0  0  0  0  0
   -2.2471   14.8612   -0.6047 C   0  0  0  0  0  0  0  0  0  0  0  0
   -4.2729   14.7157   -2.1030 C   0  0  0  0  0  0  0  0  0  0  0  0
   -1.3673   14.9595   -1.8205 C   0  0  0  0  0  0  0  0  0  0  0  0
   -2.0872   14.5144   -3.0949 C   0  0  0  0  0  0  0  0  0  0  0  0
   -2.3992   14.8491    1.7367 N   0  0  0  0  0  0  0  0  0  0  0  0
   -1.6437   14.8998    0.6055 N   0  0  0  0  0  0  0  0  0  0  0  0
   -3.4006   15.1559   -3.2006 N   0  0  0  0  0  0  0  0  0  0  0  0
   -5.4768   14.6624    0.3734 H   0  0  0  0  0  0  0  0  0  0  0  0
   -4.2850   14.7309    2.5652 H   0  0  0  0  0  0  0  0  0  0  0  0
   -4.5792   13.6817   -2.3084 H   0  0  0  0  0  0  0  0  0  0  0  0
   -5.1853   15.3275   -2.0996 H   0  0  0  0  0  0  0  0  0  0  0  0
   -1.0191   15.9909   -1.9407 H   0  0  0  0  0  0  0  0  0  0  0  0
   -0.4865   14.3282   -1.6534 H   0  0  0  0  0  0  0  0  0  0  0  0
   -1.4841   14.7460   -3.9851 H   0  0  0  0  0  0  0  0  0  0  0  0
   -2.2151   13.4242   -3.0822 H   0  0  0  0  0  0  0  0  0  0  0  0
   -3.8270   14.9021   -4.0904 H   0  0  0  0  0  0  0  0  0  0  0  0
  1  2  1  0  0  0  0
  1  3  2  0  0  0  0
  2  8  2  0  0  0  0
  3  4  1  0  0  0  0
  3  5  1  0  0  0  0
  4  6  1  0  0  0  0
  4  9  2  0  0  0  0
  5 10  1  0  0  0  0
  6  7  1  0  0  0  0
  7 10  1  0  0  0  0
  8  9  1  0  0  0  0
  1 11  1  0  0  0  0
  2 12  1  0  0  0  0
  5 13  1  0  0  0  0
  5 14  1  0  0  0  0
  6 15  1  0  0  0  0
  6 16  1  0  0  0  0
  7 17  1  0  0  0  0
  7 18  1  0  0  0  0
 10 19  1  0  0  0  0
M  END
> <HYBRID receptor title>
5S18(A) > WOY(A-201)

> <HYBRID receptor filename>
5s18.oedu

> <HYBRID Chemgauss4 score>
-4.818251

> <HYBRID receptor title>
5S18(A) > WOY(A-201)

> <HYBRID receptor filename>
5s18.oedu

> <Dock Type>
Hybrid

$$$$
MOL0075_1
  -OEChem-06022418243D

 21 22  0     0  0  0  0  0  0999 V2000
   -0.3535   14.7094    0.6129 C   0  0  0  0  0  0  0  0  0  0  0  0
   -2.4525   15.0088    0.5426 C   0  0  0  0  0  0  0  0  0  0  0  0
   -2.0654   14.7577   -0.7516 C   0  0  0  0  0  0  0  0  0  0  0  0
   -3.8607   15.2497    0.9327 C   0  0  0  0  0  0  0  0  0  0  0  0
   -2.9673   14.7371   -1.9213 C   0  0  0  0  0  0  0  0  0  0  0  0
   -4.4251   14.7021   -1.4012 C   0  0  0  0  0  0  0  0  0  0  0  0
    0.1643   14.2787   -1.8057 C   0  0  0  0  0  0  0  0  0  0  0  0
   -1.3833   14.9720    1.3941 N   0  0  0  0  0  0  0  0  0  0  0  0
   -0.7186   14.5716   -0.7035 N   0  0  0  0  0  0  0  0  0  0  0  0
   -4.6538   15.6207   -0.2624 N   0  0  0  0  0  0  0  0  0  0  0  0
    0.6730   14.6077    0.9383 H   0  0  0  0  0  0  0  0  0  0  0  0
   -4.2949   14.3515    1.3869 H   0  0  0  0  0  0  0  0  0  0  0  0
   -3.9150   16.0554    1.6754 H   0  0  0  0  0  0  0  0  0  0  0  0
   -2.8197   15.6154   -2.5567 H   0  0  0  0  0  0  0  0  0  0  0  0
   -2.7670   13.8416   -2.5200 H   0  0  0  0  0  0  0  0  0  0  0  0
   -5.1222   14.9581   -2.2116 H   0  0  0  0  0  0  0  0  0  0  0  0
   -4.6740   13.6790   -1.0917 H   0  0  0  0  0  0  0  0  0  0  0  0
    0.2187   13.1923   -1.9147 H   0  0  0  0  0  0  0  0  0  0  0  0
   -0.2287   14.7353   -2.7183 H   0  0  0  0  0  0  0  0  0  0  0  0
    1.1543   14.6930   -1.5956 H   0  0  0  0  0  0  0  0  0  0  0  0
   -5.6433   15.6011   -0.0215 H   0  0  0  0  0  0  0  0  0  0  0  0
  1  8  2  0  0  0  0
  1  9  1  0  0  0  0
  2  3  2  0  0  0  0
  2  4  1  0  0  0  0
  2  8  1  0  0  0  0
  3  5  1  0  0  0  0
  3  9  1  0  0  0  0
  4 10  1  0  0  0  0
  5  6  1  0  0  0  0
  6 10  1  0  0  0  0
  7  9  1  0  0  0  0
  1 11  1  0  0  0  0
  4 12  1  0  0  0  0
  4 13  1  0  0  0  0
  5 14  1  0  0  0  0
  5 15  1  0  0  0  0
  6 16  1  0  0  0  0
  6 17  1  0  0  0  0
  7 18  1  0  0  0  0
  7 19  1  0  0  0  0
  7 20  1  0  0  0  0
 10 21  1  0  0  0  0
M  END
> <HYBRID receptor title>
5S18(A) > WOY(A-201)

> <HYBRID receptor filename>
5s18.oedu

> <HYBRID Chemgauss4 score>
-4.744604

> <HYBRID receptor title>
5S18(A) > WOY(A-201)

> <HYBRID receptor filename>
5s18.oedu

> <Dock Type>
Hybrid

$$$$
MOL0232_3
  -OEChem-06022418243D

 30 32  0     0  0  0  0  0  0999 V2000
   -2.4935   14.9118   -1.4617 C   0  0  0  0  0  0  0  0  0  0  0  0
   -1.5404   14.9934   -2.1882 C   0  0  0  0  0  0  0  0  0  0  0  0
    2.7500   12.9381   -2.9833 C   0  0  0  0  0  0  0  0  0  0  0  0
    1.9196   14.0431   -3.1342 C   0  0  0  0  0  0  0  0  0  0  0  0
    2.1682   11.7348   -2.6179 C   0  0  0  0  0  0  0  0  0  0  0  0
   -4.5411   15.2119    1.4544 C   0  0  0  0  0  0  0  0  0  0  0  0
    0.0689   12.6659   -2.5561 C   0  0  0  0  0  0  0  0  0  0  0  0
   -3.6197   14.8104   -0.5985 C   0  0  0  0  0  0  0  0  0  0  0  0
   -5.7058   14.6280    1.0313 C   0  0  0  0  0  0  0  0  0  0  0  0
    0.5523   13.9129   -2.9183 C   0  0  0  0  0  0  0  0  0  0  0  0
   -5.7569   14.1481   -0.2675 C   0  0  0  0  0  0  0  0  0  0  0  0
   -7.0098   14.4366    1.7182 C   0  0  0  0  0  0  0  0  0  0  0  0
   -7.7532   13.5302    0.7133 C   0  0  0  0  0  0  0  0  0  0  0  0
   -0.3738   15.0910   -3.0744 C   0  0  0  0  0  0  0  0  0  0  0  0
    0.8443   11.5696   -2.3996 N   0  0  0  0  0  0  0  0  0  0  0  0
   -3.4642   15.3141    0.6491 N   0  0  0  0  0  0  0  0  0  0  0  0
   -4.7206   14.2250   -1.1183 N   0  0  0  0  0  0  0  0  0  0  0  0
   -7.0184   13.5981   -0.5387 N   0  0  0  0  0  0  0  0  0  0  0  0
    3.8188   13.0161   -3.1466 H   0  0  0  0  0  0  0  0  0  0  0  0
    2.3463   15.0006   -3.4202 H   0  0  0  0  0  0  0  0  0  0  0  0
    2.7729   10.8434   -2.4869 H   0  0  0  0  0  0  0  0  0  0  0  0
   -4.4287   15.6216    2.4508 H   0  0  0  0  0  0  0  0  0  0  0  0
   -0.9891   12.5036   -2.3744 H   0  0  0  0  0  0  0  0  0  0  0  0
   -6.8956   13.9450    2.6884 H   0  0  0  0  0  0  0  0  0  0  0  0
   -7.5233   15.3961    1.8358 H   0  0  0  0  0  0  0  0  0  0  0  0
   -7.7599   12.4948    1.0742 H   0  0  0  0  0  0  0  0  0  0  0  0
   -8.7930   13.8475    0.5835 H   0  0  0  0  0  0  0  0  0  0  0  0
   -0.7007   15.1639   -4.1190 H   0  0  0  0  0  0  0  0  0  0  0  0
    0.1757   16.0182   -2.8705 H   0  0  0  0  0  0  0  0  0  0  0  0
   -7.2633   13.1317   -1.3981 H   0  0  0  0  0  0  0  0  0  0  0  0
  1  2  3  0  0  0  0
  1  8  1  0  0  0  0
  2 14  1  0  0  0  0
  3  4  2  0  0  0  0
  3  5  1  0  0  0  0
  4 10  1  0  0  0  0
  5 15  2  0  0  0  0
  6  9  1  0  0  0  0
  6 16  2  0  0  0  0
  7 10  2  0  0  0  0
  7 15  1  0  0  0  0
  8 16  1  0  0  0  0
  8 17  2  0  0  0  0
  9 11  2  0  0  0  0
  9 12  1  0  0  0  0
 10 14  1  0  0  0  0
 11 17  1  0  0  0  0
 11 18  1  0  0  0  0
 12 13  1  0  0  0  0
 13 18  1  0  0  0  0
  3 19  1  0  0  0  0
  4 20  1  0  0  0  0
  5 21  1  0  0  0  0
  6 22  1  0  0  0  0
  7 23  1  0  0  0  0
 12 24  1  0  0  0  0
 12 25  1  0  0  0  0
 13 26  1  0  0  0  0
 13 27  1  0  0  0  0
 14 28  1  0  0  0  0
 14 29  1  0  0  0  0
 18 30  1  0  0  0  0
M  END
> <HYBRID receptor title>
5S18(A) > WOY(A-201)

> <HYBRID receptor filename>
5s18.oedu

> <HYBRID Chemgauss4 score>
-4.735359

> <HYBRID receptor title>
5S18(A) > WOY(A-201)

> <HYBRID receptor filename>
5s18.oedu

> <Dock Type>
Hybrid

$$$$
MOL0133_1
  -OEChem-06022418243D

 21 22  0     0  0  0  0  0  0999 V2000
   -4.0869   14.0087   -3.4861 C   0  0  0  0  0  0  0  0  0  0  0  0
   -2.8467   14.5538   -3.1605 C   0  0  0  0  0  0  0  0  0  0  0  0
   -5.0533   13.8308   -2.4965 C   0  0  0  0  0  0  0  0  0  0  0  0
   -2.5714   14.9268   -1.8450 C   0  0  0  0  0  0  0  0  0  0  0  0
   -4.7825   14.1929   -1.1706 C   0  0  0  0  0  0  0  0  0  0  0  0
   -3.5388   14.7625   -0.8448 C   0  0  0  0  0  0  0  0  0  0  0  0
   -5.8429   14.0304   -0.1114 C   0  0  0  0  0  0  0  0  0  0  0  0
   -3.2173   15.1340    0.5822 C   0  0  0  0  0  0  0  0  0  0  0  0
   -5.2751   14.1161    1.3065 C   0  0  0  0  0  0  0  0  0  0  0  0
   -4.4040   15.2839    1.4324 N   0  0  0  0  0  0  0  0  0  0  0  0
   -4.3007   13.7219   -4.5118 H   0  0  0  0  0  0  0  0  0  0  0  0
   -2.0939   14.6872   -3.9317 H   0  0  0  0  0  0  0  0  0  0  0  0
   -6.0186   13.4089   -2.7641 H   0  0  0  0  0  0  0  0  0  0  0  0
   -1.5981   15.3460   -1.6028 H   0  0  0  0  0  0  0  0  0  0  0  0
   -6.6111   14.8033   -0.2320 H   0  0  0  0  0  0  0  0  0  0  0  0
   -6.3238   13.0547   -0.2566 H   0  0  0  0  0  0  0  0  0  0  0  0
   -2.5787   14.3625    1.0281 H   0  0  0  0  0  0  0  0  0  0  0  0
   -2.6468   16.0709    0.5852 H   0  0  0  0  0  0  0  0  0  0  0  0
   -6.0829   14.1673    2.0474 H   0  0  0  0  0  0  0  0  0  0  0  0
   -4.7029   13.2086    1.5279 H   0  0  0  0  0  0  0  0  0  0  0  0
   -4.1113   15.3835    2.4047 H   0  0  0  0  0  0  0  0  0  0  0  0
  1  2  1  0  0  0  0
  1  3  2  0  0  0  0
  2  4  2  0  0  0  0
  3  5  1  0  0  0  0
  4  6  1  0  0  0  0
  5  6  2  0  0  0  0
  5  7  1  0  0  0  0
  6  8  1  0  0  0  0
  7  9  1  0  0  0  0
  8 10  1  0  0  0  0
  9 10  1  0  0  0  0
  1 11  1  0  0  0  0
  2 12  1  0  0  0  0
  3 13  1  0  0  0  0
  4 14  1  0  0  0  0
  7 15  1  0  0  0  0
  7 16  1  0  0  0  0
  8 17  1  0  0  0  0
  8 18  1  0  0  0  0
  9 19  1  0  0  0  0
  9 20  1  0  0  0  0
 10 21  1  0  0  0  0
M  END
> <HYBRID receptor title>
5S18(A) > WOY(A-201)

> <HYBRID receptor filename>
5s18.oedu

> <HYBRID Chemgauss4 score>
-4.724236

> <HYBRID receptor title>
5S18(A) > WOY(A-201)

> <HYBRID receptor filename>
5s18.oedu

> <Dock Type>
Hybrid

$$$$
MOL0083_1
  -OEChem-06022418243D

 25 26  0     0  0  0  0  0  0999 V2000
   -1.4896   14.5659   -0.8062 C   0  0  0  0  0  0  0  0  0  0  0  0
   -1.2089   14.6456    0.5525 C   0  0  0  0  0  0  0  0  0  0  0  0
   -3.7320   14.7247   -0.3478 C   0  0  0  0  0  0  0  0  0  0  0  0
   -3.4544   14.8162    0.9966 C   0  0  0  0  0  0  0  0  0  0  0  0
   -0.3826   14.3709   -1.8040 C   0  0  0  0  0  0  0  0  0  0  0  0
    0.2122   14.6573    1.0458 C   0  0  0  0  0  0  0  0  0  0  0  0
    0.9904   14.7293   -1.2318 C   0  0  0  0  0  0  0  0  0  0  0  0
   -5.1322   14.7661   -0.8576 C   0  0  0  0  0  0  0  0  0  0  0  0
   -4.5409   14.9557    2.0070 C   0  0  0  0  0  0  0  0  0  0  0  0
   -2.7588   14.5950   -1.2696 N   0  0  0  0  0  0  0  0  0  0  0  0
   -2.1933   14.7827    1.4685 N   0  0  0  0  0  0  0  0  0  0  0  0
    1.1706   14.1066    0.0809 N   0  0  0  0  0  0  0  0  0  0  0  0
   -0.3744   13.3297   -2.1463 H   0  0  0  0  0  0  0  0  0  0  0  0
   -0.5965   15.0045   -2.6739 H   0  0  0  0  0  0  0  0  0  0  0  0
    0.5067   15.6862    1.2810 H   0  0  0  0  0  0  0  0  0  0  0  0
    0.2652   14.0855    1.9799 H   0  0  0  0  0  0  0  0  0  0  0  0
    1.7908   14.4102   -1.9112 H   0  0  0  0  0  0  0  0  0  0  0  0
    1.0748   15.8172   -1.1345 H   0  0  0  0  0  0  0  0  0  0  0  0
   -5.4314   15.8000   -1.0706 H   0  0  0  0  0  0  0  0  0  0  0  0
   -5.2396   14.1769   -1.7778 H   0  0  0  0  0  0  0  0  0  0  0  0
   -5.8355   14.3444   -0.1273 H   0  0  0  0  0  0  0  0  0  0  0  0
   -4.8760   13.9681    2.3480 H   0  0  0  0  0  0  0  0  0  0  0  0
   -4.2027   15.5282    2.8810 H   0  0  0  0  0  0  0  0  0  0  0  0
   -5.4054   15.4917    1.5927 H   0  0  0  0  0  0  0  0  0  0  0  0
    2.1194   14.2858    0.4106 H   0  0  0  0  0  0  0  0  0  0  0  0
  1  2  1  0  0  0  0
  1  5  1  0  0  0  0
  1 10  2  0  0  0  0
  2  6  1  0  0  0  0
  2 11  2  0  0  0  0
  3  4  2  0  0  0  0
  3  8  1  0  0  0  0
  3 10  1  0  0  0  0
  4  9  1  0  0  0  0
  4 11  1  0  0  0  0
  5  7  1  0  0  0  0
  6 12  1  0  0  0  0
  7 12  1  0  0  0  0
  5 13  1  0  0  0  0
  5 14  1  0  0  0  0
  6 15  1  0  0  0  0
  6 16  1  0  0  0  0
  7 17  1  0  0  0  0
  7 18  1  0  0  0  0
  8 19  1  0  0  0  0
  8 20  1  0  0  0  0
  8 21  1  0  0  0  0
  9 22  1  0  0  0  0
  9 23  1  0  0  0  0
  9 24  1  0  0  0  0
 12 25  1  0  0  0  0
M  END
> <HYBRID receptor title>
5S18(A) > WOY(A-201)

> <HYBRID receptor filename>
5s18.oedu

> <HYBRID Chemgauss4 score>
-4.675653

> <HYBRID receptor title>
5S18(A) > WOY(A-201)

> <HYBRID receptor filename>
5s18.oedu

> <Dock Type>
Hybrid

$$$$
MOL0193_3
  -OEChem-06022418243D

 28 30  0     0  0  0  0  0  0999 V2000
    0.4994   16.6033   -4.8344 C   0  0  0  0  0  0  0  0  0  0  0  0
    1.3595   15.7726   -4.1164 C   0  0  0  0  0  0  0  0  0  0  0  0
   -0.8487   16.6809   -4.4847 C   0  0  0  0  0  0  0  0  0  0  0  0
    0.8716   15.0192   -3.0487 C   0  0  0  0  0  0  0  0  0  0  0  0
   -1.3367   15.9275   -3.4170 C   0  0  0  0  0  0  0  0  0  0  0  0
   -4.5871   13.9876   -1.6756 C   0  0  0  0  0  0  0  0  0  0  0  0
   -0.4765   15.0967   -2.6989 C   0  0  0  0  0  0  0  0  0  0  0  0
   -4.9414   14.3916   -0.4156 C   0  0  0  0  0  0  0  0  0  0  0  0
   -3.9292   14.7537    0.4586 C   0  0  0  0  0  0  0  0  0  0  0  0
   -2.3903   14.3264   -1.1429 C   0  0  0  0  0  0  0  0  0  0  0  0
   -0.9999   14.2885   -1.5536 C   0  0  0  0  0  0  0  0  0  0  0  0
   -6.2694   14.4815    0.2456 C   0  0  0  0  0  0  0  0  0  0  0  0
   -5.9070   15.2072    1.5594 C   0  0  0  0  0  0  0  0  0  0  0  0
   -3.2991   13.9490   -2.0735 N   0  0  0  0  0  0  0  0  0  0  0  0
   -2.6289   14.7316    0.1235 N   0  0  0  0  0  0  0  0  0  0  0  0
   -4.4631   15.1250    1.7015 N   0  0  0  0  0  0  0  0  0  0  0  0
   -0.1860   13.5677   -0.9530 O   0  0  0  0  0  0  0  0  0  0  0  0
    0.8794   17.1898   -5.6658 H   0  0  0  0  0  0  0  0  0  0  0  0
    2.4091   15.7122   -4.3890 H   0  0  0  0  0  0  0  0  0  0  0  0
   -1.5184   17.3280   -5.0436 H   0  0  0  0  0  0  0  0  0  0  0  0
    1.5506   14.3751   -2.4959 H   0  0  0  0  0  0  0  0  0  0  0  0
   -2.3890   15.9958   -3.1534 H   0  0  0  0  0  0  0  0  0  0  0  0
   -5.3196   13.6773   -2.4108 H   0  0  0  0  0  0  0  0  0  0  0  0
   -6.9844   15.0608   -0.3457 H   0  0  0  0  0  0  0  0  0  0  0  0
   -6.6642   13.4802    0.4461 H   0  0  0  0  0  0  0  0  0  0  0  0
   -6.2059   16.2608    1.5021 H   0  0  0  0  0  0  0  0  0  0  0  0
   -6.4190   14.7584    2.4167 H   0  0  0  0  0  0  0  0  0  0  0  0
   -3.9193   15.4881    2.4688 H   0  0  0  0  0  0  0  0  0  0  0  0
  1  2  1  0  0  0  0
  1  3  2  0  0  0  0
  2  4  2  0  0  0  0
  3  5  1  0  0  0  0
  4  7  1  0  0  0  0
  5  7  2  0  0  0  0
  6  8  1  0  0  0  0
  6 14  2  0  0  0  0
  7 11  1  0  0  0  0
  8  9  2  0  0  0  0
  8 12  1  0  0  0  0
  9 15  1  0  0  0  0
  9 16  1  0  0  0  0
 10 11  1  0  0  0  0
 10 14  1  0  0  0  0
 10 15  2  0  0  0  0
 11 17  2  0  0  0  0
 12 13  1  0  0  0  0
 13 16  1  0  0  0  0
  1 18  1  0  0  0  0
  2 19  1  0  0  0  0
  3 20  1  0  0  0  0
  4 21  1  0  0  0  0
  5 22  1  0  0  0  0
  6 23  1  0  0  0  0
 12 24  1  0  0  0  0
 12 25  1  0  0  0  0
 13 26  1  0  0  0  0
 13 27  1  0  0  0  0
 16 28  1  0  0  0  0
M  END
> <HYBRID receptor title>
5S18(A) > WOY(A-201)

> <HYBRID receptor filename>
5s18.oedu

> <HYBRID Chemgauss4 score>
-4.602685

> <HYBRID receptor title>
5S18(A) > WOY(A-201)

> <HYBRID receptor filename>
5s18.oedu

> <Dock Type>
Hybrid

$$$$
MOL0073_1
  -OEChem-06022418243D

 26 28  0     0  0  0  0  0  0999 V2000
   -4.0776   14.1150    1.2772 C   0  0  0  0  0  0  0  0  0  0  0  0
   -4.6130   15.2084   -0.8097 C   0  0  0  0  0  0  0  0  0  0  0  0
   -5.4342   14.0611    1.5970 C   0  0  0  0  0  0  0  0  0  0  0  0
   -5.9697   15.1544   -0.4899 C   0  0  0  0  0  0  0  0  0  0  0  0
   -0.1009   14.8828    0.4632 C   0  0  0  0  0  0  0  0  0  0  0  0
   -3.6670   14.6887    0.0738 C   0  0  0  0  0  0  0  0  0  0  0  0
    0.3203   14.8546   -0.8399 C   0  0  0  0  0  0  0  0  0  0  0  0
   -6.3802   14.5808    0.7135 C   0  0  0  0  0  0  0  0  0  0  0  0
   -0.6429   14.7597   -1.8315 C   0  0  0  0  0  0  0  0  0  0  0  0
   -2.2660   14.7444   -0.2564 C   0  0  0  0  0  0  0  0  0  0  0  0
    1.6856   14.8640   -1.4271 C   0  0  0  0  0  0  0  0  0  0  0  0
    1.3698   15.0290   -2.9295 C   0  0  0  0  0  0  0  0  0  0  0  0
   -1.4087   14.8326    0.7885 N   0  0  0  0  0  0  0  0  0  0  0  0
   -1.9591   14.7012   -1.5712 N   0  0  0  0  0  0  0  0  0  0  0  0
   -0.0420   14.7289   -3.0986 N   0  0  0  0  0  0  0  0  0  0  0  0
   -7.6830   14.5289    1.0207 F   0  0  0  0  0  0  0  0  0  0  0  0
   -3.3523   13.7057    1.9764 H   0  0  0  0  0  0  0  0  0  0  0  0
   -4.3089   15.6586   -1.7516 H   0  0  0  0  0  0  0  0  0  0  0  0
   -5.7542   13.6147    2.5339 H   0  0  0  0  0  0  0  0  0  0  0  0
   -6.7068   15.5587   -1.1773 H   0  0  0  0  0  0  0  0  0  0  0  0
    0.5922   14.9435    1.2933 H   0  0  0  0  0  0  0  0  0  0  0  0
    2.2883   15.6964   -1.0532 H   0  0  0  0  0  0  0  0  0  0  0  0
    2.1903   13.9122   -1.2337 H   0  0  0  0  0  0  0  0  0  0  0  0
    1.5610   16.0624   -3.2428 H   0  0  0  0  0  0  0  0  0  0  0  0
    1.9940   14.3710   -3.5426 H   0  0  0  0  0  0  0  0  0  0  0  0
   -0.5496   14.7277   -3.9695 H   0  0  0  0  0  0  0  0  0  0  0  0
  1  3  2  0  0  0  0
  1  6  1  0  0  0  0
  2  4  1  0  0  0  0
  2  6  2  0  0  0  0
  3  8  1  0  0  0  0
  4  8  2  0  0  0  0
  5  7  1  0  0  0  0
  5 13  2  0  0  0  0
  6 10  1  0  0  0  0
  7  9  2  0  0  0  0
  7 11  1  0  0  0  0
  8 16  1  0  0  0  0
  9 14  1  0  0  0  0
  9 15  1  0  0  0  0
 10 13  1  0  0  0  0
 10 14  2  0  0  0  0
 11 12  1  0  0  0  0
 12 15  1  0  0  0  0
  1 17  1  0  0  0  0
  2 18  1  0  0  0  0
  3 19  1  0  0  0  0
  4 20  1  0  0  0  0
  5 21  1  0  0  0  0
 11 22  1  0  0  0  0
 11 23  1  0  0  0  0
 12 24  1  0  0  0  0
 12 25  1  0  0  0  0
 15 26  1  0  0  0  0
M  END
> <HYBRID receptor title>
5S18(A) > WOY(A-201)

> <HYBRID receptor filename>
5s18.oedu

> <HYBRID Chemgauss4 score>
-4.592272

> <HYBRID receptor title>
5S18(A) > WOY(A-201)

> <HYBRID receptor filename>
5s18.oedu

> <Dock Type>
Hybrid

$$$$
MOL0031_1
  -OEChem-06022418243D

 19 20  0     0  0  0  0  0  0999 V2000
   -3.9270   15.2738   -0.2459 C   0  0  0  0  0  0  0  0  0  0  0  0
   -3.6647   15.3110    1.1041 C   0  0  0  0  0  0  0  0  0  0  0  0
   -1.7406   14.7163   -0.6615 C   0  0  0  0  0  0  0  0  0  0  0  0
   -1.4777   14.7412    0.7029 C   0  0  0  0  0  0  0  0  0  0  0  0
   -0.6665   14.3282   -1.6386 C   0  0  0  0  0  0  0  0  0  0  0  0
   -0.0878   14.4967    1.2239 C   0  0  0  0  0  0  0  0  0  0  0  0
    0.7366   14.4331   -1.0377 C   0  0  0  0  0  0  0  0  0  0  0  0
   -2.9744   14.9737   -1.1493 N   0  0  0  0  0  0  0  0  0  0  0  0
   -2.4398   15.0507    1.6004 N   0  0  0  0  0  0  0  0  0  0  0  0
    0.7757   13.7852    0.2746 N   0  0  0  0  0  0  0  0  0  0  0  0
   -4.9117   15.4857   -0.6439 H   0  0  0  0  0  0  0  0  0  0  0  0
   -4.4319   15.5499    1.8301 H   0  0  0  0  0  0  0  0  0  0  0  0
   -0.8385   13.3034   -1.9866 H   0  0  0  0  0  0  0  0  0  0  0  0
   -0.7461   14.9920   -2.5086 H   0  0  0  0  0  0  0  0  0  0  0  0
    0.3820   15.4554    1.4708 H   0  0  0  0  0  0  0  0  0  0  0  0
   -0.1566   13.9221    2.1552 H   0  0  0  0  0  0  0  0  0  0  0  0
    1.4802   13.9771   -1.7037 H   0  0  0  0  0  0  0  0  0  0  0  0
    1.0131   15.4877   -0.9321 H   0  0  0  0  0  0  0  0  0  0  0  0
    1.7345   13.7898    0.6234 H   0  0  0  0  0  0  0  0  0  0  0  0
  1  2  1  0  0  0  0
  1  8  2  0  0  0  0
  2  9  2  0  0  0  0
  3  4  2  0  0  0  0
  3  5  1  0  0  0  0
  3  8  1  0  0  0  0
  4  6  1  0  0  0  0
  4  9  1  0  0  0  0
  5  7  1  0  0  0  0
  6 10  1  0  0  0  0
  7 10  1  0  0  0  0
  1 11  1  0  0  0  0
  2 12  1  0  0  0  0
  5 13  1  0  0  0  0
  5 14  1  0  0  0  0
  6 15  1  0  0  0  0
  6 16  1  0  0  0  0
  7 17  1  0  0  0  0
  7 18  1  0  0  0  0
 10 19  1  0  0  0  0
M  END
> <HYBRID receptor title>
5S18(A) > WOY(A-201)

> <HYBRID receptor filename>
5s18.oedu

> <HYBRID Chemgauss4 score>
-4.560482

> <HYBRID receptor title>
5S18(A) > WOY(A-201)

> <HYBRID receptor filename>
5s18.oedu

> <Dock Type>
Hybrid

$$$$
MOL0229_3
  -OEChem-06022418243D

 26 28  0     0  0  0  0  0  0999 V2000
   -3.5094   14.6053   -1.3076 C   0  0  0  0  0  0  0  0  0  0  0  0
   -4.3647   14.4995   -0.2429 C   0  0  0  0  0  0  0  0  0  0  0  0
   -3.8178   14.4853    1.0301 C   0  0  0  0  0  0  0  0  0  0  0  0
   -1.7461   14.6849    0.1446 C   0  0  0  0  0  0  0  0  0  0  0  0
   -5.8419   14.3464   -0.1863 C   0  0  0  0  0  0  0  0  0  0  0  0
    0.8487   15.0300   -2.1952 C   0  0  0  0  0  0  0  0  0  0  0  0
    2.0397   14.6030   -1.3828 C   0  0  0  0  0  0  0  0  0  0  0  0
   -6.1071   14.5077    1.3263 C   0  0  0  0  0  0  0  0  0  0  0  0
    0.6803   14.0567   -1.0685 C   0  0  0  0  0  0  0  0  0  0  0  0
   -2.1751   14.7053   -1.1399 N   0  0  0  0  0  0  0  0  0  0  0  0
   -2.4981   14.5763    1.2616 N   0  0  0  0  0  0  0  0  0  0  0  0
   -4.8264   14.3583    1.9967 N   0  0  0  0  0  0  0  0  0  0  0  0
    0.3342   16.2193    0.3730 O   0  0  0  0  0  0  0  0  0  0  0  0
    0.3589   13.9750    1.5168 O   0  0  0  0  0  0  0  0  0  0  0  0
   -0.0399   14.8060    0.3808 S   0  0  0  0  0  0  0  0  0  0  0  0
   -3.8602   14.6107   -2.3326 H   0  0  0  0  0  0  0  0  0  0  0  0
   -6.3580   15.1171   -0.7654 H   0  0  0  0  0  0  0  0  0  0  0  0
   -6.1359   13.3506   -0.5325 H   0  0  0  0  0  0  0  0  0  0  0  0
    0.4983   16.0482   -2.0798 H   0  0  0  0  0  0  0  0  0  0  0  0
    0.7683   14.6479   -3.2060 H   0  0  0  0  0  0  0  0  0  0  0  0
    2.7536   13.9363   -1.8519 H   0  0  0  0  0  0  0  0  0  0  0  0
    2.4883   15.3348   -0.7225 H   0  0  0  0  0  0  0  0  0  0  0  0
   -6.5102   15.5061    1.5333 H   0  0  0  0  0  0  0  0  0  0  0  0
   -6.8337   13.7714    1.6846 H   0  0  0  0  0  0  0  0  0  0  0  0
    0.4634   13.0226   -1.2940 H   0  0  0  0  0  0  0  0  0  0  0  0
   -4.6684   14.3921    2.9918 H   0  0  0  0  0  0  0  0  0  0  0  0
  1  2  1  0  0  0  0
  1 10  2  0  0  0  0
  2  3  2  0  0  0  0
  2  5  1  0  0  0  0
  3 11  1  0  0  0  0
  3 12  1  0  0  0  0
  4 10  1  0  0  0  0
  4 11  2  0  0  0  0
  4 15  1  0  0  0  0
  5  8  1  0  0  0  0
  6  7  1  0  0  0  0
  6  9  1  0  0  0  0
  7  9  1  0  0  0  0
  8 12  1  0  0  0  0
  9 15  1  0  0  0  0
 13 15  2  0  0  0  0
 14 15  2  0  0  0  0
  1 16  1  0  0  0  0
  5 17  1  0  0  0  0
  5 18  1  0  0  0  0
  6 19  1  0  0  0  0
  6 20  1  0  0  0  0
  7 21  1  0  0  0  0
  7 22  1  0  0  0  0
  8 23  1  0  0  0  0
  8 24  1  0  0  0  0
  9 25  1  0  0  0  0
 12 26  1  0  0  0  0
M  END
> <HYBRID receptor title>
5S18(A) > WOY(A-201)

> <HYBRID receptor filename>
5s18.oedu

> <HYBRID Chemgauss4 score>
-4.556972

> <HYBRID receptor title>
5S18(A) > WOY(A-201)

> <HYBRID receptor filename>
5s18.oedu

> <Dock Type>
Hybrid

$$$$
MOL0174_1
  -OEChem-06022418243D

 21 22  0     1  0  0  0  0  0999 V2000
   -1.4623   15.0333    0.3785 C   0  0  0  0  0  0  0  0  0  0  0  0
   -3.3125   14.9612    1.4471 C   0  0  0  0  0  0  0  0  0  0  0  0
   -2.4361   14.8898   -0.5839 C   0  0  0  0  0  0  0  0  0  0  0  0
   -2.4221   14.7633   -2.0633 C   0  0  0  0  0  0  0  0  0  0  0  0
   -4.9106   14.7396   -0.4967 C   0  0  0  0  0  0  0  0  0  0  0  0
   -4.8044   14.2863   -1.9642 C   0  0  1  0  0  0  0  0  0  0  0  0
   -6.1325   14.4962   -2.6866 C   0  0  0  0  0  0  0  0  0  0  0  0
   -2.0151   15.0776    1.6381 N   0  0  0  0  0  0  0  0  0  0  0  0
   -3.6058   14.8414    0.1247 N   0  0  0  0  0  0  0  0  0  0  0  0
   -3.7414   15.0403   -2.6521 N   0  0  0  0  0  0  0  0  0  0  0  0
   -0.3939   15.1023    0.2333 H   0  0  0  0  0  0  0  0  0  0  0  0
   -4.0683   14.9621    2.2202 H   0  0  0  0  0  0  0  0  0  0  0  0
   -1.6918   15.4572   -2.4935 H   0  0  0  0  0  0  0  0  0  0  0  0
   -2.1048   13.7516   -2.3425 H   0  0  0  0  0  0  0  0  0  0  0  0
   -5.3692   15.7325   -0.4147 H   0  0  0  0  0  0  0  0  0  0  0  0
   -5.5036   14.0264    0.0864 H   0  0  0  0  0  0  0  0  0  0  0  0
   -4.5618   13.2157   -2.0019 H   0  0  0  0  0  0  0  0  0  0  0  0
   -6.4020   15.5513   -2.6667 H   0  0  0  0  0  0  0  0  0  0  0  0
   -6.9157   13.9197   -2.1963 H   0  0  0  0  0  0  0  0  0  0  0  0
   -6.0460   14.1704   -3.7223 H   0  0  0  0  0  0  0  0  0  0  0  0
   -3.9384   16.0390   -2.5804 H   0  0  0  0  0  0  0  0  0  0  0  0
  1  3  2  0  0  0  0
  1  8  1  0  0  0  0
  2  8  2  0  0  0  0
  2  9  1  0  0  0  0
  3  4  1  0  0  0  0
  3  9  1  0  0  0  0
  4 10  1  0  0  0  0
  5  6  1  0  0  0  0
  5  9  1  0  0  0  0
  6  7  1  0  0  0  0
  6 10  1  0  0  0  0
  1 11  1  0  0  0  0
  2 12  1  0  0  0  0
  4 13  1  0  0  0  0
  4 14  1  0  0  0  0
  5 15  1  0  0  0  0
  5 16  1  0  0  0  0
  6 17  1  0  0  0  0
  7 18  1  0  0  0  0
  7 19  1  0  0  0  0
  7 20  1  0  0  0  0
 10 21  1  0  0  0  0
M  END
> <HYBRID receptor title>
5S18(A) > WOY(A-201)

> <HYBRID receptor filename>
5s18.oedu

> <HYBRID Chemgauss4 score>
-4.553725

> <HYBRID receptor title>
5S18(A) > WOY(A-201)

> <HYBRID receptor filename>
5s18.oedu

> <Dock Type>
Hybrid

$$$$
MOL0144_1
  -OEChem-06022418243D

 19 20  0     0  0  0  0  0  0999 V2000
   -2.1609   14.7737   -0.6762 C   0  0  0  0  0  0  0  0  0  0  0  0
   -2.1229   15.0043    0.6938 C   0  0  0  0  0  0  0  0  0  0  0  0
    0.1268   14.6038   -0.7068 C   0  0  0  0  0  0  0  0  0  0  0  0
    0.1647   14.8196    0.6514 C   0  0  0  0  0  0  0  0  0  0  0  0
   -3.4672   14.8043   -1.4191 C   0  0  0  0  0  0  0  0  0  0  0  0
   -3.3930   15.1721    1.4820 C   0  0  0  0  0  0  0  0  0  0  0  0
   -4.6725   14.6486   -0.4895 C   0  0  0  0  0  0  0  0  0  0  0  0
   -1.0317   14.5804   -1.3930 N   0  0  0  0  0  0  0  0  0  0  0  0
   -0.9547   15.0187    1.3737 N   0  0  0  0  0  0  0  0  0  0  0  0
   -4.5471   15.5490    0.6581 N   0  0  0  0  0  0  0  0  0  0  0  0
    1.5187   14.3402   -1.6749 Cl  0  0  0  0  0  0  0  0  0  0  0  0
    1.6097   14.8629    1.5755 Cl  0  0  0  0  0  0  0  0  0  0  0  0
   -3.5533   15.7458   -1.9732 H   0  0  0  0  0  0  0  0  0  0  0  0
   -3.4587   13.9877   -2.1516 H   0  0  0  0  0  0  0  0  0  0  0  0
   -3.6256   14.2350    2.0002 H   0  0  0  0  0  0  0  0  0  0  0  0
   -3.2306   15.9348    2.2530 H   0  0  0  0  0  0  0  0  0  0  0  0
   -5.6073   14.8529   -1.0265 H   0  0  0  0  0  0  0  0  0  0  0  0
   -4.7317   13.6133   -0.1369 H   0  0  0  0  0  0  0  0  0  0  0  0
   -5.3953   15.4941    1.2225 H   0  0  0  0  0  0  0  0  0  0  0  0
  1  2  1  0  0  0  0
  1  5  1  0  0  0  0
  1  8  2  0  0  0  0
  2  6  1  0  0  0  0
  2  9  2  0  0  0  0
  3  4  2  0  0  0  0
  3  8  1  0  0  0  0
  3 11  1  0  0  0  0
  4  9  1  0  0  0  0
  4 12  1  0  0  0  0
  5  7  1  0  0  0  0
  6 10  1  0  0  0  0
  7 10  1  0  0  0  0
  5 13  1  0  0  0  0
  5 14  1  0  0  0  0
  6 15  1  0  0  0  0
  6 16  1  0  0  0  0
  7 17  1  0  0  0  0
  7 18  1  0  0  0  0
 10 19  1  0  0  0  0
M  END
> <HYBRID receptor title>
5S18(A) > WOY(A-201)

> <HYBRID receptor filename>
5s18.oedu

> <HYBRID Chemgauss4 score>
-4.453748

> <HYBRID receptor title>
5S18(A) > WOY(A-201)

> <HYBRID receptor filename>
5s18.oedu

> <Dock Type>
Hybrid

$$$$
MOL0227_2
  -OEChem-06022418243D

 23 25  0     0  0  0  0  0  0999 V2000
    0.7984   14.7968   -1.6022 C   0  0  0  0  0  0  0  0  0  0  0  0
   -0.3854   14.7826   -0.8093 C   0  0  0  0  0  0  0  0  0  0  0  0
   -5.0626   14.0451   -1.6923 C   0  0  0  0  0  0  0  0  0  0  0  0
    0.5356   14.5365   -2.9291 C   0  0  0  0  0  0  0  0  0  0  0  0
   -5.4133   14.2364   -0.3820 C   0  0  0  0  0  0  0  0  0  0  0  0
   -1.5081   14.5122   -1.5606 C   0  0  0  0  0  0  0  0  0  0  0  0
   -4.4046   14.5161    0.5258 C   0  0  0  0  0  0  0  0  0  0  0  0
   -2.8761   14.4151   -1.1383 C   0  0  0  0  0  0  0  0  0  0  0  0
   -6.7317   14.1564    0.2994 C   0  0  0  0  0  0  0  0  0  0  0  0
   -6.3820   14.6949    1.7036 C   0  0  0  0  0  0  0  0  0  0  0  0
   -3.7819   14.1341   -2.1052 N   0  0  0  0  0  0  0  0  0  0  0  0
   -3.1113   14.6127    0.1772 N   0  0  0  0  0  0  0  0  0  0  0  0
   -4.9333   14.6683    1.8161 N   0  0  0  0  0  0  0  0  0  0  0  0
   -1.1327   14.2765   -3.2147 S   0  0  0  0  0  0  0  0  0  0  0  0
    1.7921   14.9888   -1.2193 H   0  0  0  0  0  0  0  0  0  0  0  0
   -0.4040   14.9642    0.2583 H   0  0  0  0  0  0  0  0  0  0  0  0
   -5.7925   13.8110   -2.4576 H   0  0  0  0  0  0  0  0  0  0  0  0
    1.2434   14.4871   -3.7445 H   0  0  0  0  0  0  0  0  0  0  0  0
   -7.4859   14.7796   -0.1895 H   0  0  0  0  0  0  0  0  0  0  0  0
   -7.0721   13.1172    0.3505 H   0  0  0  0  0  0  0  0  0  0  0  0
   -6.7350   15.7278    1.8092 H   0  0  0  0  0  0  0  0  0  0  0  0
   -6.8544   14.0964    2.4892 H   0  0  0  0  0  0  0  0  0  0  0  0
   -4.3945   14.9391    2.6239 H   0  0  0  0  0  0  0  0  0  0  0  0
  1  2  1  0  0  0  0
  1  4  2  0  0  0  0
  2  6  2  0  0  0  0
  3  5  1  0  0  0  0
  3 11  2  0  0  0  0
  4 14  1  0  0  0  0
  5  7  2  0  0  0  0
  5  9  1  0  0  0  0
  6  8  1  0  0  0  0
  6 14  1  0  0  0  0
  7 12  1  0  0  0  0
  7 13  1  0  0  0  0
  8 11  1  0  0  0  0
  8 12  2  0  0  0  0
  9 10  1  0  0  0  0
 10 13  1  0  0  0  0
  1 15  1  0  0  0  0
  2 16  1  0  0  0  0
  3 17  1  0  0  0  0
  4 18  1  0  0  0  0
  9 19  1  0  0  0  0
  9 20  1  0  0  0  0
 10 21  1  0  0  0  0
 10 22  1  0  0  0  0
 13 23  1  0  0  0  0
M  END
> <HYBRID receptor title>
5S18(A) > WOY(A-201)

> <HYBRID receptor filename>
5s18.oedu

> <HYBRID Chemgauss4 score>
-4.424914

> <HYBRID receptor title>
5S18(A) > WOY(A-201)

> <HYBRID receptor filename>
5s18.oedu

> <Dock Type>
Hybrid

$$$$
MOL0091_2
  -OEChem-06022418243D

 28 29  0     0  0  0  0  0  0999 V2000
   -3.0276   14.9086   -1.1872 C   0  0  0  0  0  0  0  0  0  0  0  0
   -3.9076   15.3326   -0.2269 C   0  0  0  0  0  0  0  0  0  0  0  0
   -3.4135   15.5761    1.0445 C   0  0  0  0  0  0  0  0  0  0  0  0
   -1.3376   15.0084    0.3486 C   0  0  0  0  0  0  0  0  0  0  0  0
   -5.3765   15.5539   -0.2754 C   0  0  0  0  0  0  0  0  0  0  0  0
   -5.6293   16.2218    1.0936 C   0  0  0  0  0  0  0  0  0  0  0  0
    0.9004   14.3444   -0.5982 C   0  0  0  0  0  0  0  0  0  0  0  0
    0.3175   13.7595    1.7796 C   0  0  0  0  0  0  0  0  0  0  0  0
    0.8579   16.1050    1.1568 C   0  0  0  0  0  0  0  0  0  0  0  0
    0.1100   14.8242    0.6583 C   0  0  0  0  0  0  0  0  0  0  0  0
   -1.7158   14.7395   -0.9238 N   0  0  0  0  0  0  0  0  0  0  0  0
   -2.1197   15.4214    1.3697 N   0  0  0  0  0  0  0  0  0  0  0  0
   -4.4448   15.9867    1.9020 N   0  0  0  0  0  0  0  0  0  0  0  0
   -3.3403   14.6860   -2.1999 H   0  0  0  0  0  0  0  0  0  0  0  0
   -5.6666   16.2123   -1.0990 H   0  0  0  0  0  0  0  0  0  0  0  0
   -5.9041   14.5979   -0.3490 H   0  0  0  0  0  0  0  0  0  0  0  0
   -5.7716   17.3014    0.9646 H   0  0  0  0  0  0  0  0  0  0  0  0
   -6.5264   15.8190    1.5741 H   0  0  0  0  0  0  0  0  0  0  0  0
    1.9685   14.2011   -0.3974 H   0  0  0  0  0  0  0  0  0  0  0  0
    0.5149   13.3905   -0.9748 H   0  0  0  0  0  0  0  0  0  0  0  0
    0.8085   15.0787   -1.4073 H   0  0  0  0  0  0  0  0  0  0  0  0
    1.3794   13.6211    2.0102 H   0  0  0  0  0  0  0  0  0  0  0  0
   -0.1812   14.0299    2.7178 H   0  0  0  0  0  0  0  0  0  0  0  0
   -0.0788   12.7888    1.4590 H   0  0  0  0  0  0  0  0  0  0  0  0
    1.9173   15.9191    1.3709 H   0  0  0  0  0  0  0  0  0  0  0  0
    0.8169   16.8992    0.4022 H   0  0  0  0  0  0  0  0  0  0  0  0
    0.4053   16.4866    2.0795 H   0  0  0  0  0  0  0  0  0  0  0  0
   -4.3086   16.2799    2.8569 H   0  0  0  0  0  0  0  0  0  0  0  0
  1  2  1  0  0  0  0
  1 11  2  0  0  0  0
  2  3  2  0  0  0  0
  2  5  1  0  0  0  0
  3 12  1  0  0  0  0
  3 13  1  0  0  0  0
  4 10  1  0  0  0  0
  4 11  1  0  0  0  0
  4 12  2  0  0  0  0
  5  6  1  0  0  0  0
  6 13  1  0  0  0  0
  7 10  1  0  0  0  0
  8 10  1  0  0  0  0
  9 10  1  0  0  0  0
  1 14  1  0  0  0  0
  5 15  1  0  0  0  0
  5 16  1  0  0  0  0
  6 17  1  0  0  0  0
  6 18  1  0  0  0  0
  7 19  1  0  0  0  0
  7 20  1  0  0  0  0
  7 21  1  0  0  0  0
  8 22  1  0  0  0  0
  8 23  1  0  0  0  0
  8 24  1  0  0  0  0
  9 25  1  0  0  0  0
  9 26  1  0  0  0  0
  9 27  1  0  0  0  0
 13 28  1  0  0  0  0
M  END
> <HYBRID receptor title>
5S18(A) > WOY(A-201)

> <HYBRID receptor filename>
5s18.oedu

> <HYBRID Chemgauss4 score>
-4.383670

> <HYBRID receptor title>
5S18(A) > WOY(A-201)

> <HYBRID receptor filename>
5s18.oedu

> <Dock Type>
Hybrid

$$$$
MOL0120_2
  -OEChem-06022418243D

 25 27  0     0  0  0  0  0  0999 V2000
   -1.3784   14.5840   -0.1186 C   0  0  0  0  0  0  0  0  0  0  0  0
   -3.5629   15.5223    0.2440 C   0  0  0  0  0  0  0  0  0  0  0  0
   -1.1346   14.7669    1.2330 C   0  0  0  0  0  0  0  0  0  0  0  0
   -3.2215   15.6631    1.5795 C   0  0  0  0  0  0  0  0  0  0  0  0
   -2.1738   14.7210   -4.1707 C   0  0  0  0  0  0  0  0  0  0  0  0
   -2.6181   14.9715   -0.6146 C   0  0  0  0  0  0  0  0  0  0  0  0
   -3.4586   14.5061   -4.5942 C   0  0  0  0  0  0  0  0  0  0  0  0
   -4.4564   14.4432   -3.6349 C   0  0  0  0  0  0  0  0  0  0  0  0
   -2.9223   14.8046   -2.0126 C   0  0  0  0  0  0  0  0  0  0  0  0
   -4.0147   14.2726   -5.9526 C   0  0  0  0  0  0  0  0  0  0  0  0
   -5.5324   14.3276   -5.6740 C   0  0  0  0  0  0  0  0  0  0  0  0
   -2.0274   15.2984    2.0979 N   0  0  0  0  0  0  0  0  0  0  0  0
   -1.8731   14.8804   -2.8658 N   0  0  0  0  0  0  0  0  0  0  0  0
   -4.2197   14.5891   -2.3210 N   0  0  0  0  0  0  0  0  0  0  0  0
   -5.7013   14.2051   -4.2358 N   0  0  0  0  0  0  0  0  0  0  0  0
   -0.6151   14.1516   -0.7577 H   0  0  0  0  0  0  0  0  0  0  0  0
   -4.5409   15.8358   -0.1070 H   0  0  0  0  0  0  0  0  0  0  0  0
   -0.1823   14.4826    1.6689 H   0  0  0  0  0  0  0  0  0  0  0  0
   -3.9235   16.0862    2.2902 H   0  0  0  0  0  0  0  0  0  0  0  0
   -1.3391   14.7704   -4.8592 H   0  0  0  0  0  0  0  0  0  0  0  0
   -3.7114   15.0493   -6.6603 H   0  0  0  0  0  0  0  0  0  0  0  0
   -3.7182   13.2855   -6.3214 H   0  0  0  0  0  0  0  0  0  0  0  0
   -5.9414   15.2892   -6.0067 H   0  0  0  0  0  0  0  0  0  0  0  0
   -6.0646   13.5334   -6.2075 H   0  0  0  0  0  0  0  0  0  0  0  0
   -6.5785   14.1853   -3.7396 H   0  0  0  0  0  0  0  0  0  0  0  0
  1  3  1  0  0  0  0
  1  6  2  0  0  0  0
  2  4  2  0  0  0  0
  2  6  1  0  0  0  0
  3 12  2  0  0  0  0
  4 12  1  0  0  0  0
  5  7  1  0  0  0  0
  5 13  2  0  0  0  0
  6  9  1  0  0  0  0
  7  8  2  0  0  0  0
  7 10  1  0  0  0  0
  8 14  1  0  0  0  0
  8 15  1  0  0  0  0
  9 13  1  0  0  0  0
  9 14  2  0  0  0  0
 10 11  1  0  0  0  0
 11 15  1  0  0  0  0
  1 16  1  0  0  0  0
  2 17  1  0  0  0  0
  3 18  1  0  0  0  0
  4 19  1  0  0  0  0
  5 20  1  0  0  0  0
 10 21  1  0  0  0  0
 10 22  1  0  0  0  0
 11 23  1  0  0  0  0
 11 24  1  0  0  0  0
 15 25  1  0  0  0  0
M  END
> <HYBRID receptor title>
5S18(A) > WOY(A-201)

> <HYBRID receptor filename>
5s18.oedu

> <HYBRID Chemgauss4 score>
-4.321407

> <HYBRID receptor title>
5S18(A) > WOY(A-201)

> <HYBRID receptor filename>
5s18.oedu

> <Dock Type>
Hybrid

$$$$
MOL0212_3
  -OEChem-06022418243D

 31 33  0     0  0  0  0  0  0999 V2000
   -2.3370   14.0563   -1.6219 C   0  0  0  0  0  0  0  0  0  0  0  0
   -1.2416   13.9677   -2.1069 C   0  0  0  0  0  0  0  0  0  0  0  0
    1.4721   17.6308   -4.2391 C   0  0  0  0  0  0  0  0  0  0  0  0
    2.3902   16.6965   -3.7598 C   0  0  0  0  0  0  0  0  0  0  0  0
    0.1076   17.3416   -4.2189 C   0  0  0  0  0  0  0  0  0  0  0  0
    1.9439   15.4729   -3.2605 C   0  0  0  0  0  0  0  0  0  0  0  0
   -0.3387   16.1181   -3.7196 C   0  0  0  0  0  0  0  0  0  0  0  0
   -5.9013   14.1151   -1.3408 C   0  0  0  0  0  0  0  0  0  0  0  0
   -3.6347   14.1668   -1.0497 C   0  0  0  0  0  0  0  0  0  0  0  0
   -6.0655   14.3739   -0.0057 C   0  0  0  0  0  0  0  0  0  0  0  0
    0.5795   15.1837   -3.2404 C   0  0  0  0  0  0  0  0  0  0  0  0
   -4.9281   14.5145    0.7729 C   0  0  0  0  0  0  0  0  0  0  0  0
   -7.2931   14.4982    0.8228 C   0  0  0  0  0  0  0  0  0  0  0  0
   -6.7079   14.9986    2.1612 C   0  0  0  0  0  0  0  0  0  0  0  0
    0.0967   13.8621   -2.7014 C   0  0  0  0  0  0  0  0  0  0  0  0
   -4.6781   14.0090   -1.8987 N   0  0  0  0  0  0  0  0  0  0  0  0
   -3.6839   14.4150    0.2773 N   0  0  0  0  0  0  0  0  0  0  0  0
   -5.2752   14.7607    2.1096 N   0  0  0  0  0  0  0  0  0  0  0  0
    1.8197   18.5840   -4.6266 H   0  0  0  0  0  0  0  0  0  0  0  0
    3.4525   16.9219   -3.7744 H   0  0  0  0  0  0  0  0  0  0  0  0
   -0.6075   18.0693   -4.5910 H   0  0  0  0  0  0  0  0  0  0  0  0
    2.6665   14.7509   -2.8893 H   0  0  0  0  0  0  0  0  0  0  0  0
   -1.4036   15.9014   -3.7079 H   0  0  0  0  0  0  0  0  0  0  0  0
   -6.7415   13.9798   -2.0108 H   0  0  0  0  0  0  0  0  0  0  0  0
   -8.0010   15.2189    0.4040 H   0  0  0  0  0  0  0  0  0  0  0  0
   -7.7716   13.5213    0.9445 H   0  0  0  0  0  0  0  0  0  0  0  0
   -6.8932   16.0735    2.2743 H   0  0  0  0  0  0  0  0  0  0  0  0
   -7.1669   14.4870    3.0134 H   0  0  0  0  0  0  0  0  0  0  0  0
    0.8100   13.4879   -1.9568 H   0  0  0  0  0  0  0  0  0  0  0  0
    0.0916   13.1179   -3.5072 H   0  0  0  0  0  0  0  0  0  0  0  0
   -4.6123   14.9601    2.8424 H   0  0  0  0  0  0  0  0  0  0  0  0
  1  2  3  0  0  0  0
  1  9  1  0  0  0  0
  2 15  1  0  0  0  0
  3  4  1  0  0  0  0
  3  5  2  0  0  0  0
  4  6  2  0  0  0  0
  5  7  1  0  0  0  0
  6 11  1  0  0  0  0
  7 11  2  0  0  0  0
  8 10  1  0  0  0  0
  8 16  2  0  0  0  0
  9 16  1  0  0  0  0
  9 17  2  0  0  0  0
 10 12  2  0  0  0  0
 10 13  1  0  0  0  0
 11 15  1  0  0  0  0
 12 17  1  0  0  0  0
 12 18  1  0  0  0  0
 13 14  1  0  0  0  0
 14 18  1  0  0  0  0
  3 19  1  0  0  0  0
  4 20  1  0  0  0  0
  5 21  1  0  0  0  0
  6 22  1  0  0  0  0
  7 23  1  0  0  0  0
  8 24  1  0  0  0  0
 13 25  1  0  0  0  0
 13 26  1  0  0  0  0
 14 27  1  0  0  0  0
 14 28  1  0  0  0  0
 15 29  1  0  0  0  0
 15 30  1  0  0  0  0
 18 31  1  0  0  0  0
M  END
> <HYBRID receptor title>
5S18(A) > WOY(A-201)

> <HYBRID receptor filename>
5s18.oedu

> <HYBRID Chemgauss4 score>
-4.319513

> <HYBRID receptor title>
5S18(A) > WOY(A-201)

> <HYBRID receptor filename>
5s18.oedu

> <Dock Type>
Hybrid

$$$$
MOL0218_1
  -OEChem-06022418243D

 25 27  0     0  0  0  0  0  0999 V2000
    1.4885   14.3092   -1.2690 C   0  0  0  0  0  0  0  0  0  0  0  0
    1.6929   14.0689   -2.6231 C   0  0  0  0  0  0  0  0  0  0  0  0
    0.1936   14.4378   -0.7791 C   0  0  0  0  0  0  0  0  0  0  0  0
    0.5779   13.9664   -3.4392 C   0  0  0  0  0  0  0  0  0  0  0  0
   -4.4440   14.4228   -1.7783 C   0  0  0  0  0  0  0  0  0  0  0  0
   -4.7492   14.6663   -0.4653 C   0  0  0  0  0  0  0  0  0  0  0  0
   -0.8544   14.3190   -1.6778 C   0  0  0  0  0  0  0  0  0  0  0  0
   -3.7015   14.7815    0.4341 C   0  0  0  0  0  0  0  0  0  0  0  0
   -2.2220   14.4404   -1.2423 C   0  0  0  0  0  0  0  0  0  0  0  0
   -6.0580   14.7961    0.2269 C   0  0  0  0  0  0  0  0  0  0  0  0
   -5.6158   15.2711    1.6280 C   0  0  0  0  0  0  0  0  0  0  0  0
   -0.6951   14.0857   -2.9998 N   0  0  0  0  0  0  0  0  0  0  0  0
   -3.1688   14.3077   -2.2017 N   0  0  0  0  0  0  0  0  0  0  0  0
   -2.4122   14.6718    0.0750 N   0  0  0  0  0  0  0  0  0  0  0  0
   -4.1889   15.0147    1.7286 N   0  0  0  0  0  0  0  0  0  0  0  0
    2.3367   14.3973   -0.5967 H   0  0  0  0  0  0  0  0  0  0  0  0
    2.6934   13.9677   -3.0277 H   0  0  0  0  0  0  0  0  0  0  0  0
    0.0250   14.6241    0.2767 H   0  0  0  0  0  0  0  0  0  0  0  0
    0.6826   13.7795   -4.5029 H   0  0  0  0  0  0  0  0  0  0  0  0
   -5.2079   14.3082   -2.5375 H   0  0  0  0  0  0  0  0  0  0  0  0
   -6.7076   15.5314   -0.2561 H   0  0  0  0  0  0  0  0  0  0  0  0
   -6.5586   13.8241    0.2811 H   0  0  0  0  0  0  0  0  0  0  0  0
   -5.7995   16.3468    1.7359 H   0  0  0  0  0  0  0  0  0  0  0  0
   -6.1708   14.7545    2.4176 H   0  0  0  0  0  0  0  0  0  0  0  0
   -3.6073   15.1957    2.5318 H   0  0  0  0  0  0  0  0  0  0  0  0
  1  2  1  0  0  0  0
  1  3  2  0  0  0  0
  2  4  2  0  0  0  0
  3  7  1  0  0  0  0
  4 12  1  0  0  0  0
  5  6  1  0  0  0  0
  5 13  2  0  0  0  0
  6  8  2  0  0  0  0
  6 10  1  0  0  0  0
  7  9  1  0  0  0  0
  7 12  2  0  0  0  0
  8 14  1  0  0  0  0
  8 15  1  0  0  0  0
  9 13  1  0  0  0  0
  9 14  2  0  0  0  0
 10 11  1  0  0  0  0
 11 15  1  0  0  0  0
  1 16  1  0  0  0  0
  2 17  1  0  0  0  0
  3 18  1  0  0  0  0
  4 19  1  0  0  0  0
  5 20  1  0  0  0  0
 10 21  1  0  0  0  0
 10 22  1  0  0  0  0
 11 23  1  0  0  0  0
 11 24  1  0  0  0  0
 15 25  1  0  0  0  0
M  END
> <HYBRID receptor title>
5S18(A) > WOY(A-201)

> <HYBRID receptor filename>
5s18.oedu

> <HYBRID Chemgauss4 score>
-4.157134

> <HYBRID receptor title>
5S18(A) > WOY(A-201)

> <HYBRID receptor filename>
5s18.oedu

> <Dock Type>
Hybrid

$$$$
MOL0104_3
  -OEChem-06022418243D

 26 28  0     0  0  0  0  0  0999 V2000
    0.1581   14.3133   -3.4948 C   0  0  0  0  0  0  0  0  0  0  0  0
    1.3836   14.2276   -2.8342 C   0  0  0  0  0  0  0  0  0  0  0  0
   -1.0251   14.4004   -2.7611 C   0  0  0  0  0  0  0  0  0  0  0  0
    1.4259   14.2288   -1.4400 C   0  0  0  0  0  0  0  0  0  0  0  0
   -3.2778   15.1758    1.2863 C   0  0  0  0  0  0  0  0  0  0  0  0
   -0.9828   14.4016   -1.3669 C   0  0  0  0  0  0  0  0  0  0  0  0
   -4.4495   14.6639    0.7950 C   0  0  0  0  0  0  0  0  0  0  0  0
    0.2427   14.3158   -0.7063 C   0  0  0  0  0  0  0  0  0  0  0  0
   -4.4230   14.0659   -0.4546 C   0  0  0  0  0  0  0  0  0  0  0  0
   -2.2074   14.4915   -0.6138 C   0  0  0  0  0  0  0  0  0  0  0  0
   -5.8267   14.6625    1.3537 C   0  0  0  0  0  0  0  0  0  0  0  0
   -6.5579   13.7348    0.3591 C   0  0  0  0  0  0  0  0  0  0  0  0
   -2.1230   15.0984    0.5941 N   0  0  0  0  0  0  0  0  0  0  0  0
   -3.3067   13.9626   -1.1940 N   0  0  0  0  0  0  0  0  0  0  0  0
   -5.7020   13.6114   -0.8088 N   0  0  0  0  0  0  0  0  0  0  0  0
    0.3007   14.3141    0.6335 F   0  0  0  0  0  0  0  0  0  0  0  0
    0.1254   14.3125   -4.5804 H   0  0  0  0  0  0  0  0  0  0  0  0
    2.3047   14.1597   -3.4054 H   0  0  0  0  0  0  0  0  0  0  0  0
   -1.9725   14.4664   -3.2908 H   0  0  0  0  0  0  0  0  0  0  0  0
    2.3800   14.1620   -0.9256 H   0  0  0  0  0  0  0  0  0  0  0  0
   -3.2213   15.6685    2.2493 H   0  0  0  0  0  0  0  0  0  0  0  0
   -5.8579   14.2600    2.3701 H   0  0  0  0  0  0  0  0  0  0  0  0
   -6.2480   15.6725    1.3317 H   0  0  0  0  0  0  0  0  0  0  0  0
   -6.7054   12.7447    0.8070 H   0  0  0  0  0  0  0  0  0  0  0  0
   -7.5421   14.1331    0.0924 H   0  0  0  0  0  0  0  0  0  0  0  0
   -5.9087   13.0876   -1.6449 H   0  0  0  0  0  0  0  0  0  0  0  0
  1  2  1  0  0  0  0
  1  3  2  0  0  0  0
  2  4  2  0  0  0  0
  3  6  1  0  0  0  0
  4  8  1  0  0  0  0
  5  7  1  0  0  0  0
  5 13  2  0  0  0  0
  6  8  2  0  0  0  0
  6 10  1  0  0  0  0
  7  9  2  0  0  0  0
  7 11  1  0  0  0  0
  8 16  1  0  0  0  0
  9 14  1  0  0  0  0
  9 15  1  0  0  0  0
 10 13  1  0  0  0  0
 10 14  2  0  0  0  0
 11 12  1  0  0  0  0
 12 15  1  0  0  0  0
  1 17  1  0  0  0  0
  2 18  1  0  0  0  0
  3 19  1  0  0  0  0
  4 20  1  0  0  0  0
  5 21  1  0  0  0  0
 11 22  1  0  0  0  0
 11 23  1  0  0  0  0
 12 24  1  0  0  0  0
 12 25  1  0  0  0  0
 15 26  1  0  0  0  0
M  END
> <HYBRID receptor title>
5S18(A) > WOY(A-201)

> <HYBRID receptor filename>
5s18.oedu

> <HYBRID Chemgauss4 score>
-3.862672

> <HYBRID receptor title>
5S18(A) > WOY(A-201)

> <HYBRID receptor filename>
5s18.oedu

> <Dock Type>
Hybrid

$$$$
